  0
SECTION
  2
ENTITIES
999
DXF created from EnergyPlus
999
Program Version,EnergyPlus, Version 24.2.0-94a887817b, YMD=2025.02.24 16:36
999
Polygon Action,TRIANGULATE3DFACE
999
Color Scheme,Default
999
Text - True North
  0
TEXT
  8
1
  6
Continuous
 62
  3
 10
      -11.60000
 20
        2.40000
 30
        0.10000
 40
 .25
  1
True North
 41
 0.0
  7
MONOTXT
210
0.0
220
0.0
230
1.0
999
Text - Building Title
  0
TEXT
  8
1
  6
Continuous
 62
  3
 10
      -14.60000
 20
       -1.60000
 30
        0.10000
 40
 .4
  1
Building - Ref Bldg Small Office New2004_v1.3_5.0
 41
 0.0
  7
MONOTXT
210
0.0
220
0.0
230
1.0
999
North Arrow Stem
  0
3DFACE
  8
1
 62
  3
 10
      -10.60000
 20
        2.40000
 30
        0.10000
 11
      -10.60000
 21
        2.40000
 31
        0.00000
 12
      -10.60000
 22
       -0.60000
 32
        0.00000
 13
      -10.60000
 23
       -0.60000
 33
        0.10000
999
North Arrow Head 1
  0
3DFACE
  8
1
 62
  3
 10
      -10.60000
 20
        2.40000
 30
        0.10000
 11
      -10.60000
 21
        2.40000
 31
        0.00000
 12
      -11.10000
 22
        1.53397
 32
        0.00000
 13
      -11.10000
 23
        1.53397
 33
        0.10000
999
North Arrow Head 2
  0
3DFACE
  8
1
 62
  3
 10
      -10.60000
 20
        2.40000
 30
        0.10000
 11
      -10.60000
 21
        2.40000
 31
        0.00000
 12
      -10.10000
 22
        1.53397
 32
        0.00000
 13
      -10.10000
 23
        1.53397
 33
        0.10000
999
North Arrow Side 1
  0
3DFACE
  8
1
 62
  3
 10
      -11.10000
 20
        3.90000
 30
        0.10000
 11
      -11.10000
 21
        3.90000
 31
        0.00000
 12
      -11.10000
 22
        2.90000
 32
        0.00000
 13
      -11.10000
 23
        2.90000
 33
        0.10000
999
North Arrow Side 2
  0
3DFACE
  8
1
 62
  3
 10
      -11.10000
 20
        3.90000
 30
        0.10000
 11
      -11.10000
 21
        3.90000
 31
        0.00000
 12
      -10.10000
 22
        2.90000
 32
        0.00000
 13
      -10.10000
 23
        2.90000
 33
        0.10000
999
North Arrow Side 3
  0
3DFACE
  8
1
 62
  3
 10
      -10.10000
 20
        3.90000
 30
        0.10000
 11
      -10.10000
 21
        3.90000
 31
        0.00000
 12
      -10.10000
 22
        2.90000
 32
        0.00000
 13
      -10.10000
 23
        2.90000
 33
        0.10000
999
Zone Names
999
Zone=1:ATTIC
999
Zone=2:CORE_ZN
999
Zone=3:PERIMETER_ZN_1
999
Zone=4:PERIMETER_ZN_2
999
Zone=5:PERIMETER_ZN_3
999
Zone=6:PERIMETER_ZN_4
999
ATTIC:ATTIC_FLOOR_CORE
  0
3DFACE
  8
ATTIC
 62
  8
 10
        5.00000
 20
       13.46000
 30
        3.05000
 11
       22.69000
 21
       13.46000
 31
        3.05000
 12
       22.69000
 22
        5.00000
 32
        3.05000
 13
        5.00000
 23
        5.00000
 33
        3.05000
999
ATTIC:ATTIC_FLOOR_PERIMETER_EAST
  0
3DFACE
  8
ATTIC
 62
  8
 10
       22.69000
 20
        5.00000
 30
        3.05000
 11
       22.69000
 21
       13.46000
 31
        3.05000
 12
       27.69000
 22
       18.46000
 32
        3.05000
 13
       27.69000
 23
        0.00000
 33
        3.05000
999
ATTIC:ATTIC_FLOOR_PERIMETER_NORTH
  0
3DFACE
  8
ATTIC
 62
  8
 10
        0.00000
 20
       18.46000
 30
        3.05000
 11
       27.69000
 21
       18.46000
 31
        3.05000
 12
       22.69000
 22
       13.46000
 32
        3.05000
 13
        5.00000
 23
       13.46000
 33
        3.05000
999
ATTIC:ATTIC_FLOOR_PERIMETER_SOUTH
  0
3DFACE
  8
ATTIC
 62
  8
 10
        0.00000
 20
        0.00000
 30
        3.05000
 11
        5.00000
 21
        5.00000
 31
        3.05000
 12
       22.69000
 22
        5.00000
 32
        3.05000
 13
       27.69000
 23
        0.00000
 33
        3.05000
999
ATTIC:ATTIC_FLOOR_PERIMETER_WEST
  0
3DFACE
  8
ATTIC
 62
  8
 10
        5.00000
 20
       13.46000
 30
        3.05000
 11
        5.00000
 21
        5.00000
 31
        3.05000
 12
        0.00000
 22
        0.00000
 32
        3.05000
 13
        0.00000
 23
       18.46000
 33
        3.05000
999
ATTIC:ATTIC_SOFFIT_EAST
  0
3DFACE
  8
ATTIC
 62
  8
 10
       28.29000
 20
       19.06000
 30
        3.05000
 11
       28.29000
 21
       -0.60000
 31
        3.05000
 12
       27.69000
 22
        0.00000
 32
        3.05000
 13
       27.69000
 23
       18.46000
 33
        3.05000
999
ATTIC:ATTIC_SOFFIT_NORTH
  0
3DFACE
  8
ATTIC
 62
  8
 10
       -0.60000
 20
       19.06000
 30
        3.05000
 11
       28.29000
 21
       19.06000
 31
        3.05000
 12
       27.69000
 22
       18.46000
 32
        3.05000
 13
        0.00000
 23
       18.46000
 33
        3.05000
999
ATTIC:ATTIC_SOFFIT_SOUTH
  0
3DFACE
  8
ATTIC
 62
  8
 10
        0.00000
 20
        0.00000
 30
        3.05000
 11
       27.69000
 21
        0.00000
 31
        3.05000
 12
       28.29000
 22
       -0.60000
 32
        3.05000
 13
       -0.60000
 23
       -0.60000
 33
        3.05000
999
ATTIC:ATTIC_SOFFIT_WEST
  0
3DFACE
  8
ATTIC
 62
  8
 10
       -0.60000
 20
       19.06000
 30
        3.05000
 11
        0.00000
 21
       18.46000
 31
        3.05000
 12
        0.00000
 22
        0.00000
 32
        3.05000
 13
       -0.60000
 23
       -0.60000
 33
        3.05000
999
ATTIC:ATTIC_ROOF_EAST
  0
3DFACE
  8
ATTIC
 62
 15
 10
       28.29000
 20
       -0.60000
 30
        3.05000
 11
       28.29000
 21
       19.06000
 31
        3.05000
 12
       18.46000
 22
        9.23000
 32
        6.33000
 13
       18.46000
 23
        9.23000
 33
        6.33000
999
ATTIC:ATTIC_ROOF_NORTH
  0
3DFACE
  8
ATTIC
 62
 15
 10
       28.29000
 20
       19.06000
 30
        3.05000
 11
       -0.60000
 21
       19.06000
 31
        3.05000
 12
        9.23000
 22
        9.23000
 32
        6.33000
 13
       18.46000
 23
        9.23000
 33
        6.33000
999
ATTIC:ATTIC_ROOF_SOUTH
  0
3DFACE
  8
ATTIC
 62
 15
 10
       -0.60000
 20
       -0.60000
 30
        3.05000
 11
       28.29000
 21
       -0.60000
 31
        3.05000
 12
       18.46000
 22
        9.23000
 32
        6.33000
 13
        9.23000
 23
        9.23000
 33
        6.33000
999
ATTIC:ATTIC_ROOF_WEST
  0
3DFACE
  8
ATTIC
 62
 15
 10
       -0.60000
 20
       19.06000
 30
        3.05000
 11
       -0.60000
 21
       -0.60000
 31
        3.05000
 12
        9.23000
 22
        9.23000
 32
        6.33000
 13
        9.23000
 23
        9.23000
 33
        6.33000
999
CORE_ZN:CORE_ZN_WALL_EAST
  0
3DFACE
  8
CORE_ZN
 62
 43
 10
       22.69000
 20
        5.00000
 30
        3.05000
 11
       22.69000
 21
        5.00000
 31
        0.00000
 12
       22.69000
 22
       13.46000
 32
        0.00000
 13
       22.69000
 23
       13.46000
 33
        3.05000
999
CORE_ZN:CORE_ZN_WALL_NORTH
  0
3DFACE
  8
CORE_ZN
 62
 43
 10
       22.69000
 20
       13.46000
 30
        3.05000
 11
       22.69000
 21
       13.46000
 31
        0.00000
 12
        5.00000
 22
       13.46000
 32
        0.00000
 13
        5.00000
 23
       13.46000
 33
        3.05000
999
CORE_ZN:CORE_ZN_WALL_SOUTH
  0
3DFACE
  8
CORE_ZN
 62
 43
 10
        5.00000
 20
        5.00000
 30
        3.05000
 11
        5.00000
 21
        5.00000
 31
        0.00000
 12
       22.69000
 22
        5.00000
 32
        0.00000
 13
       22.69000
 23
        5.00000
 33
        3.05000
999
CORE_ZN:CORE_ZN_WALL_WEST
  0
3DFACE
  8
CORE_ZN
 62
 43
 10
        5.00000
 20
       13.46000
 30
        3.05000
 11
        5.00000
 21
       13.46000
 31
        0.00000
 12
        5.00000
 22
        5.00000
 32
        0.00000
 13
        5.00000
 23
        5.00000
 33
        3.05000
999
CORE_ZN:CORE_ZN_FLOOR
  0
3DFACE
  8
CORE_ZN
 62
  8
 10
        5.00000
 20
       13.46000
 30
        0.00000
 11
       22.69000
 21
       13.46000
 31
        0.00000
 12
       22.69000
 22
        5.00000
 32
        0.00000
 13
        5.00000
 23
        5.00000
 33
        0.00000
999
CORE_ZN:CORE_ZN_CEILING
  0
3DFACE
  8
CORE_ZN
 62
 15
 10
       22.69000
 20
       13.46000
 30
        3.05000
 11
        5.00000
 21
       13.46000
 31
        3.05000
 12
        5.00000
 22
        5.00000
 32
        3.05000
 13
       22.69000
 23
        5.00000
 33
        3.05000
999
PERIMETER_ZN_1:PERIMETER_ZN_1_WALL_EAST
  0
3DFACE
  8
PERIMETER_ZN_1
 62
 43
 10
       27.69000
 20
        0.00000
 30
        3.05000
 11
       27.69000
 21
        0.00000
 31
        0.00000
 12
       22.69000
 22
        5.00000
 32
        0.00000
 13
       22.69000
 23
        5.00000
 33
        3.05000
999
PERIMETER_ZN_1:PERIMETER_ZN_1_WALL_NORTH
  0
3DFACE
  8
PERIMETER_ZN_1
 62
 43
 10
       22.69000
 20
        5.00000
 30
        3.05000
 11
       22.69000
 21
        5.00000
 31
        0.00000
 12
        5.00000
 22
        5.00000
 32
        0.00000
 13
        5.00000
 23
        5.00000
 33
        3.05000
999
PERIMETER_ZN_1:PERIMETER_ZN_1_WALL_SOUTH
  0
3DFACE
  8
PERIMETER_ZN_1
 62
 43
 10
        0.00000
 20
        0.00000
 30
        3.05000
 11
        0.00000
 21
        0.00000
 31
        0.00000
 12
       27.69000
 22
        0.00000
 32
        0.00000
 13
       27.69000
 23
        0.00000
 33
        3.05000
999
PERIMETER_ZN_1:PERIMETER_ZN_1_WALL_SOUTH_WINDOW_1
  0
3DFACE
  8
PERIMETER_ZN_1
 62
143
 10
        1.39000
 20
        0.00000
 30
        2.42400
 11
        1.39000
 21
        0.00000
 31
        0.90000
 12
        3.22000
 22
        0.00000
 32
        0.90000
 13
        3.22000
 23
        0.00000
 33
        2.42400
999
PERIMETER_ZN_1:PERIMETER_ZN_1_WALL_SOUTH_WINDOW_2
  0
3DFACE
  8
PERIMETER_ZN_1
 62
143
 10
        6.01000
 20
        0.00000
 30
        2.42400
 11
        6.01000
 21
        0.00000
 31
        0.90000
 12
        7.84000
 22
        0.00000
 32
        0.90000
 13
        7.84000
 23
        0.00000
 33
        2.42400
999
PERIMETER_ZN_1:PERIMETER_ZN_1_WALL_SOUTH_WINDOW_3
  0
3DFACE
  8
PERIMETER_ZN_1
 62
143
 10
       10.62000
 20
        0.00000
 30
        2.42400
 11
       10.62000
 21
        0.00000
 31
        0.90000
 12
       12.45000
 22
        0.00000
 32
        0.90000
 13
       12.45000
 23
        0.00000
 33
        2.42400
999
PERIMETER_ZN_1:PERIMETER_ZN_1_WALL_SOUTH_WINDOW_4
  0
3DFACE
  8
PERIMETER_ZN_1
 62
143
 10
       15.24000
 20
        0.00000
 30
        2.42400
 11
       15.24000
 21
        0.00000
 31
        0.90000
 12
       17.07000
 22
        0.00000
 32
        0.90000
 13
       17.07000
 23
        0.00000
 33
        2.42400
999
PERIMETER_ZN_1:PERIMETER_ZN_1_WALL_SOUTH_WINDOW_5
  0
3DFACE
  8
PERIMETER_ZN_1
 62
143
 10
       19.85000
 20
        0.00000
 30
        2.42400
 11
       19.85000
 21
        0.00000
 31
        0.90000
 12
       21.68000
 22
        0.00000
 32
        0.90000
 13
       21.68000
 23
        0.00000
 33
        2.42400
999
PERIMETER_ZN_1:PERIMETER_ZN_1_WALL_SOUTH_WINDOW_6
  0
3DFACE
  8
PERIMETER_ZN_1
 62
143
 10
       24.47000
 20
        0.00000
 30
        2.42400
 11
       24.47000
 21
        0.00000
 31
        0.90000
 12
       26.30000
 22
        0.00000
 32
        0.90000
 13
       26.30000
 23
        0.00000
 33
        2.42400
999
PERIMETER_ZN_1:PERIMETER_ZN_1_WALL_SOUTH_DOOR
  0
3DFACE
  8
PERIMETER_ZN_1
 62
143
 10
       12.93000
 20
        0.00000
 30
        2.13400
 11
       12.93000
 21
        0.00000
 31
        0.00000
 12
       14.76000
 22
        0.00000
 32
        0.00000
 13
       14.76000
 23
        0.00000
 33
        2.13400
999
PERIMETER_ZN_1:PERIMETER_ZN_1_WALL_WEST
  0
3DFACE
  8
PERIMETER_ZN_1
 62
 43
 10
        5.00000
 20
        5.00000
 30
        3.05000
 11
        5.00000
 21
        5.00000
 31
        0.00000
 12
        0.00000
 22
        0.00000
 32
        0.00000
 13
        0.00000
 23
        0.00000
 33
        3.05000
999
PERIMETER_ZN_1:PERIMETER_ZN_1_FLOOR
  0
3DFACE
  8
PERIMETER_ZN_1
 62
  8
 10
       27.69000
 20
        0.00000
 30
        0.00000
 11
        0.00000
 21
        0.00000
 31
        0.00000
 12
        5.00000
 22
        5.00000
 32
        0.00000
 13
       22.69000
 23
        5.00000
 33
        0.00000
999
PERIMETER_ZN_1:PERIMETER_ZN_1_CEILING
  0
3DFACE
  8
PERIMETER_ZN_1
 62
 15
 10
        0.00000
 20
        0.00000
 30
        3.05000
 11
       27.69000
 21
        0.00000
 31
        3.05000
 12
       22.69000
 22
        5.00000
 32
        3.05000
 13
        5.00000
 23
        5.00000
 33
        3.05000
999
PERIMETER_ZN_2:PERIMETER_ZN_2_WALL_EAST
  0
3DFACE
  8
PERIMETER_ZN_2
 62
 43
 10
       27.69000
 20
        0.00000
 30
        3.05000
 11
       27.69000
 21
        0.00000
 31
        0.00000
 12
       27.69000
 22
       18.46000
 32
        0.00000
 13
       27.69000
 23
       18.46000
 33
        3.05000
999
PERIMETER_ZN_2:PERIMETER_ZN_2_WALL_EAST_WINDOW_1
  0
3DFACE
  8
PERIMETER_ZN_2
 62
143
 10
       27.69000
 20
        1.39000
 30
        2.42400
 11
       27.69000
 21
        1.39000
 31
        0.90000
 12
       27.69000
 22
        3.22000
 32
        0.90000
 13
       27.69000
 23
        3.22000
 33
        2.42400
999
PERIMETER_ZN_2:PERIMETER_ZN_2_WALL_EAST_WINDOW_2
  0
3DFACE
  8
PERIMETER_ZN_2
 62
143
 10
       27.69000
 20
        6.01000
 30
        2.42400
 11
       27.69000
 21
        6.01000
 31
        0.90000
 12
       27.69000
 22
        7.84000
 32
        0.90000
 13
       27.69000
 23
        7.84000
 33
        2.42400
999
PERIMETER_ZN_2:PERIMETER_ZN_2_WALL_EAST_WINDOW_3
  0
3DFACE
  8
PERIMETER_ZN_2
 62
143
 10
       27.69000
 20
       10.62000
 30
        2.42400
 11
       27.69000
 21
       10.62000
 31
        0.90000
 12
       27.69000
 22
       12.45000
 32
        0.90000
 13
       27.69000
 23
       12.45000
 33
        2.42400
999
PERIMETER_ZN_2:PERIMETER_ZN_2_WALL_EAST_WINDOW_4
  0
3DFACE
  8
PERIMETER_ZN_2
 62
143
 10
       27.69000
 20
       15.24000
 30
        2.42400
 11
       27.69000
 21
       15.24000
 31
        0.90000
 12
       27.69000
 22
       17.07000
 32
        0.90000
 13
       27.69000
 23
       17.07000
 33
        2.42400
999
PERIMETER_ZN_2:PERIMETER_ZN_2_WALL_NORTH
  0
3DFACE
  8
PERIMETER_ZN_2
 62
 43
 10
       27.69000
 20
       18.46000
 30
        3.05000
 11
       27.69000
 21
       18.46000
 31
        0.00000
 12
       22.69000
 22
       13.46000
 32
        0.00000
 13
       22.69000
 23
       13.46000
 33
        3.05000
999
PERIMETER_ZN_2:PERIMETER_ZN_2_WALL_SOUTH
  0
3DFACE
  8
PERIMETER_ZN_2
 62
 43
 10
       22.69000
 20
        5.00000
 30
        3.05000
 11
       22.69000
 21
        5.00000
 31
        0.00000
 12
       27.69000
 22
        0.00000
 32
        0.00000
 13
       27.69000
 23
        0.00000
 33
        3.05000
999
PERIMETER_ZN_2:PERIMETER_ZN_2_WALL_WEST
  0
3DFACE
  8
PERIMETER_ZN_2
 62
 43
 10
       22.69000
 20
       13.46000
 30
        3.05000
 11
       22.69000
 21
       13.46000
 31
        0.00000
 12
       22.69000
 22
        5.00000
 32
        0.00000
 13
       22.69000
 23
        5.00000
 33
        3.05000
999
PERIMETER_ZN_2:PERIMETER_ZN_2_FLOOR
  0
3DFACE
  8
PERIMETER_ZN_2
 62
  8
 10
       22.69000
 20
       13.46000
 30
        0.00000
 11
       27.69000
 21
       18.46000
 31
        0.00000
 12
       27.69000
 22
        0.00000
 32
        0.00000
 13
       22.69000
 23
        5.00000
 33
        0.00000
999
PERIMETER_ZN_2:PERIMETER_ZN_2_CEILING
  0
3DFACE
  8
PERIMETER_ZN_2
 62
 15
 10
       27.69000
 20
       18.46000
 30
        3.05000
 11
       22.69000
 21
       13.46000
 31
        3.05000
 12
       22.69000
 22
        5.00000
 32
        3.05000
 13
       27.69000
 23
        0.00000
 33
        3.05000
999
PERIMETER_ZN_3:PERIMETER_ZN_3_WALL_EAST
  0
3DFACE
  8
PERIMETER_ZN_3
 62
 43
 10
       22.69000
 20
       13.46000
 30
        3.05000
 11
       22.69000
 21
       13.46000
 31
        0.00000
 12
       27.69000
 22
       18.46000
 32
        0.00000
 13
       27.69000
 23
       18.46000
 33
        3.05000
999
PERIMETER_ZN_3:PERIMETER_ZN_3_WALL_NORTH
  0
3DFACE
  8
PERIMETER_ZN_3
 62
 43
 10
       27.69000
 20
       18.46000
 30
        3.05000
 11
       27.69000
 21
       18.46000
 31
        0.00000
 12
        0.00000
 22
       18.46000
 32
        0.00000
 13
        0.00000
 23
       18.46000
 33
        3.05000
999
PERIMETER_ZN_3:PERIMETER_ZN_3_WALL_NORTH_WINDOW_1
  0
3DFACE
  8
PERIMETER_ZN_3
 62
143
 10
       26.30000
 20
       18.46000
 30
        2.42400
 11
       26.30000
 21
       18.46000
 31
        0.90000
 12
       24.47000
 22
       18.46000
 32
        0.90000
 13
       24.47000
 23
       18.46000
 33
        2.42400
999
PERIMETER_ZN_3:PERIMETER_ZN_3_WALL_NORTH_WINDOW_2
  0
3DFACE
  8
PERIMETER_ZN_3
 62
143
 10
       21.68000
 20
       18.46000
 30
        2.42400
 11
       21.68000
 21
       18.46000
 31
        0.90000
 12
       19.85000
 22
       18.46000
 32
        0.90000
 13
       19.85000
 23
       18.46000
 33
        2.42400
999
PERIMETER_ZN_3:PERIMETER_ZN_3_WALL_NORTH_WINDOW_3
  0
3DFACE
  8
PERIMETER_ZN_3
 62
143
 10
       17.07000
 20
       18.46000
 30
        2.42400
 11
       17.07000
 21
       18.46000
 31
        0.90000
 12
       15.24000
 22
       18.46000
 32
        0.90000
 13
       15.24000
 23
       18.46000
 33
        2.42400
999
PERIMETER_ZN_3:PERIMETER_ZN_3_WALL_NORTH_WINDOW_4
  0
3DFACE
  8
PERIMETER_ZN_3
 62
143
 10
       12.45000
 20
       18.46000
 30
        2.42400
 11
       12.45000
 21
       18.46000
 31
        0.90000
 12
       10.62000
 22
       18.46000
 32
        0.90000
 13
       10.62000
 23
       18.46000
 33
        2.42400
999
PERIMETER_ZN_3:PERIMETER_ZN_3_WALL_NORTH_WINDOW_5
  0
3DFACE
  8
PERIMETER_ZN_3
 62
143
 10
        7.84000
 20
       18.46000
 30
        2.42400
 11
        7.84000
 21
       18.46000
 31
        0.90000
 12
        6.01000
 22
       18.46000
 32
        0.90000
 13
        6.01000
 23
       18.46000
 33
        2.42400
999
PERIMETER_ZN_3:PERIMETER_ZN_3_WALL_NORTH_WINDOW_6
  0
3DFACE
  8
PERIMETER_ZN_3
 62
143
 10
        3.22000
 20
       18.46000
 30
        2.42400
 11
        3.22000
 21
       18.46000
 31
        0.90000
 12
        1.39000
 22
       18.46000
 32
        0.90000
 13
        1.39000
 23
       18.46000
 33
        2.42400
999
PERIMETER_ZN_3:PERIMETER_ZN_3_WALL_SOUTH
  0
3DFACE
  8
PERIMETER_ZN_3
 62
 43
 10
        5.00000
 20
       13.46000
 30
        3.05000
 11
        5.00000
 21
       13.46000
 31
        0.00000
 12
       22.69000
 22
       13.46000
 32
        0.00000
 13
       22.69000
 23
       13.46000
 33
        3.05000
999
PERIMETER_ZN_3:PERIMETER_ZN_3_WALL_WEST
  0
3DFACE
  8
PERIMETER_ZN_3
 62
 43
 10
        0.00000
 20
       18.46000
 30
        3.05000
 11
        0.00000
 21
       18.46000
 31
        0.00000
 12
        5.00000
 22
       13.46000
 32
        0.00000
 13
        5.00000
 23
       13.46000
 33
        3.05000
999
PERIMETER_ZN_3:PERIMETER_ZN_3_FLOOR
  0
3DFACE
  8
PERIMETER_ZN_3
 62
  8
 10
        5.00000
 20
       13.46000
 30
        0.00000
 11
        0.00000
 21
       18.46000
 31
        0.00000
 12
       27.69000
 22
       18.46000
 32
        0.00000
 13
       22.69000
 23
       13.46000
 33
        0.00000
999
PERIMETER_ZN_3:PERIMETER_ZN_3_CEILING
  0
3DFACE
  8
PERIMETER_ZN_3
 62
 15
 10
        0.00000
 20
       18.46000
 30
        3.05000
 11
        5.00000
 21
       13.46000
 31
        3.05000
 12
       22.69000
 22
       13.46000
 32
        3.05000
 13
       27.69000
 23
       18.46000
 33
        3.05000
999
PERIMETER_ZN_4:PERIMETER_ZN_4_WALL_EAST
  0
3DFACE
  8
PERIMETER_ZN_4
 62
 43
 10
        5.00000
 20
        5.00000
 30
        3.05000
 11
        5.00000
 21
        5.00000
 31
        0.00000
 12
        5.00000
 22
       13.46000
 32
        0.00000
 13
        5.00000
 23
       13.46000
 33
        3.05000
999
PERIMETER_ZN_4:PERIMETER_ZN_4_WALL_NORTH
  0
3DFACE
  8
PERIMETER_ZN_4
 62
 43
 10
        5.00000
 20
       13.46000
 30
        3.05000
 11
        5.00000
 21
       13.46000
 31
        0.00000
 12
        0.00000
 22
       18.46000
 32
        0.00000
 13
        0.00000
 23
       18.46000
 33
        3.05000
999
PERIMETER_ZN_4:PERIMETER_ZN_4_WALL_SOUTH
  0
3DFACE
  8
PERIMETER_ZN_4
 62
 43
 10
        0.00000
 20
        0.00000
 30
        3.05000
 11
        0.00000
 21
        0.00000
 31
        0.00000
 12
        5.00000
 22
        5.00000
 32
        0.00000
 13
        5.00000
 23
        5.00000
 33
        3.05000
999
PERIMETER_ZN_4:PERIMETER_ZN_4_WALL_WEST
  0
3DFACE
  8
PERIMETER_ZN_4
 62
 43
 10
        0.00000
 20
       18.46000
 30
        3.05000
 11
        0.00000
 21
       18.46000
 31
        0.00000
 12
        0.00000
 22
        0.00000
 32
        0.00000
 13
        0.00000
 23
        0.00000
 33
        3.05000
999
PERIMETER_ZN_4:PERIMETER_ZN_4_WALL_WEST_WINDOW_1
  0
3DFACE
  8
PERIMETER_ZN_4
 62
143
 10
        0.00000
 20
       17.07000
 30
        2.42400
 11
        0.00000
 21
       17.07000
 31
        0.90000
 12
        0.00000
 22
       15.24000
 32
        0.90000
 13
        0.00000
 23
       15.24000
 33
        2.42400
999
PERIMETER_ZN_4:PERIMETER_ZN_4_WALL_WEST_WINDOW_2
  0
3DFACE
  8
PERIMETER_ZN_4
 62
143
 10
        0.00000
 20
       12.45000
 30
        2.42400
 11
        0.00000
 21
       12.45000
 31
        0.90000
 12
        0.00000
 22
       10.62000
 32
        0.90000
 13
        0.00000
 23
       10.62000
 33
        2.42400
999
PERIMETER_ZN_4:PERIMETER_ZN_4_WALL_WEST_WINDOW_3
  0
3DFACE
  8
PERIMETER_ZN_4
 62
143
 10
        0.00000
 20
        7.84000
 30
        2.42400
 11
        0.00000
 21
        7.84000
 31
        0.90000
 12
        0.00000
 22
        6.01000
 32
        0.90000
 13
        0.00000
 23
        6.01000
 33
        2.42400
999
PERIMETER_ZN_4:PERIMETER_ZN_4_WALL_WEST_WINDOW_4
  0
3DFACE
  8
PERIMETER_ZN_4
 62
143
 10
        0.00000
 20
        3.22000
 30
        2.42400
 11
        0.00000
 21
        3.22000
 31
        0.90000
 12
        0.00000
 22
        1.39000
 32
        0.90000
 13
        0.00000
 23
        1.39000
 33
        2.42400
999
PERIMETER_ZN_4:PERIMETER_ZN_4_FLOOR
  0
3DFACE
  8
PERIMETER_ZN_4
 62
  8
 10
        5.00000
 20
        5.00000
 30
        0.00000
 11
        0.00000
 21
        0.00000
 31
        0.00000
 12
        0.00000
 22
       18.46000
 32
        0.00000
 13
        5.00000
 23
       13.46000
 33
        0.00000
999
PERIMETER_ZN_4:PERIMETER_ZN_4_CEILING
  0
3DFACE
  8
PERIMETER_ZN_4
 62
 15
 10
        0.00000
 20
        0.00000
 30
        3.05000
 11
        5.00000
 21
        5.00000
 31
        3.05000
 12
        5.00000
 22
       13.46000
 32
        3.05000
 13
        0.00000
 23
       18.46000
 33
        3.05000
  0
ENDSEC
  0
EOF
