Program Version,EnergyPlus, Version 9.6.0-f420c06a69, YMD=2024.09.02 12:50
! This file shows details about the branches, nodes, and other
! elements of the flow connections.
! This file is intended for use in "debugging" potential problems
! that may also be detected by the program, but may be more easily
! identified by "eye".
! This file is also intended to support software which draws a
! schematic diagram of the HVAC system.
! ===============================================================
! #Nodes,<Number of Unique Nodes>
 #Nodes,141
! <Node>,<NodeNumber>,<Node Name>,<Node Fluid Type>,<# Times Node Referenced After Definition>
 Node,1,OUTSIDE AIR INLET NODE 1,Air,3
 Node,2,HPOUTDOORAIRINLETNODE,Air,3
 Node,3,HPPLANTAIRINLETNODE,Air,3
 Node,4,HPWHOUTDOORAIRINLETNODE,Air,2
 Node,5,SPACE1-1 IN NODE,Air,4
 Node,6,SPACE2-1 IN NODE,Air,4
 Node,7,SPACE3-1 IN NODE,Air,4
 Node,8,SPACE4-1 IN NODE,Air,4
 Node,9,ZONE4AIRINLETNODE,Air,3
 Node,10,ZONE4BAIRINLETNODE,Air,3
 Node,11,ZONE4AIROUTLETNODE,Air,3
 Node,12,ZONE4BAIROUTLETNODE,Air,3
 Node,13,SPACE5-1 IN NODE,Air,4
 Node,14,HPWHAIRINLETNODE,Air,2
 Node,15,HPWHAIROUTLETNODE,Air,2
 Node,16,MAIN COOLING COIL 1 OUTLET NODE,Air,7
 Node,17,MAIN HEATING COIL 1 OUTLET NODE,Air,8
 Node,18,VAV SYS 1 OUTLET NODE,Air,8
 Node,19,HW SUPPLY OUTLET NODE,Water,5
 Node,20,CW SUPPLY OUTLET NODE,Water,5
 Node,21,VAV SYS 1 INLET NODE,Air,3
 Node,22,MIXED AIR NODE 1,Air,5
 Node,23,HW SUPPLY INLET NODE,Water,2
 Node,24,HW PUMP OUTLET NODE,Water,1
 Node,25,HPWH USE INLET NODE,Water,2
 Node,26,HPWH USE OUTLET NODE,Water,2
 Node,27,HEATING SUPPLY BYPASS INLET NODE,Water,1
 Node,28,HEATING SUPPLY BYPASS OUTLET NODE,Water,1
 Node,29,HEATING SUPPLY EXIT PIPE INLET NODE,Water,1
 Node,30,HW DEMAND INLET NODE,Water,2
 Node,31,HW DEMAND ENTRANCE PIPE OUTLET NODE,Water,1
 Node,32,HW DEMAND EXIT PIPE INLET NODE,Water,1
 Node,33,HW DEMAND OUTLET NODE,Water,2
 Node,34,SPACE1-1 ZONE COIL WATER IN NODE,Water,1
 Node,35,SPACE1-1 ZONE COIL WATER OUT NODE,Water,1
 Node,36,SPACE2-1 ZONE COIL WATER IN NODE,Water,1
 Node,37,SPACE2-1 ZONE COIL WATER OUT NODE,Water,1
 Node,38,SPACE3-1 ZONE COIL WATER IN NODE,Water,1
 Node,39,SPACE3-1 ZONE COIL WATER OUT NODE,Water,1
 Node,40,SPACE4-1 ZONE COIL WATER IN NODE,Water,1
 Node,41,SPACE4-1 ZONE COIL WATER OUT NODE,Water,1
 Node,42,SPACE5-1 ZONE COIL WATER IN NODE,Water,1
 Node,43,SPACE5-1 ZONE COIL WATER OUT NODE,Water,1
 Node,44,MAIN HEATING COIL 1 WATER INLET NODE,Water,2
 Node,45,MAIN HEATING COIL 1 WATER OUTLET NODE,Water,1
 Node,46,HEATING DEMAND BYPASS INLET NODE,Water,1
 Node,47,HEATING DEMAND BYPASS OUTLET NODE,Water,1
 Node,48,CW DEMAND INLET NODE,Water,2
 Node,49,CW DEMAND ENTRANCE PIPE OUTLET NODE,Water,1
 Node,50,MAIN COOLING COIL 1 WATER INLET NODE,Water,2
 Node,51,MAIN COOLING COIL 1 WATER OUTLET NODE,Water,1
 Node,52,CW DEMAND BYPASS INLET NODE,Water,1
 Node,53,CW DEMAND BYPASS OUTLET NODE,Water,1
 Node,54,CW DEMAND EXIT PIPE INLET NODE,Water,1
 Node,55,CW DEMAND OUTLET NODE,Water,2
 Node,56,SUPPLY SIDE EXIT PIPE INLET NODE,Water,1
 Node,57,CW SUPPLY INLET NODE,Water,2
 Node,58,CW PUMP OUTLET NODE,Water,1
 Node,59,CENTRAL CHILLER INLET NODE,Water,1
 Node,60,CENTRAL CHILLER OUTLET NODE,Water,2
 Node,61,CW SUPPLY BYPASS INLET NODE,Water,1
 Node,62,CW SUPPLY BYPASS OUTLET NODE,Water,1
 Node,63,CONDENSER SUPPLY INLET NODE,Water,2
 Node,64,CONDENSER PUMP OUTLET NODE,Water,1
 Node,65,CONDENSER TOWER INLET NODE,Water,1
 Node,66,CONDENSER TOWER OUTLET NODE,Water,1
 Node,67,COND SUPPLY BYPASS INLET NODE,Water,1
 Node,68,COND SUPPLY BYPASS OUTLET NODE,Water,1
 Node,69,CONDENSER SUPPLY EXIT PIPE INLET NODE,Water,1
 Node,70,CONDENSER SUPPLY OUTLET NODE,Water,4
 Node,71,CONDENSER DEMAND INLET NODE,Water,2
 Node,72,CONDENSER DEMAND ENTRANCE PIPE OUTLET NODE,Water,1
 Node,73,CENTRAL CHILLER CONDENSER INLET NODE,Water,1
 Node,74,CENTRAL CHILLER CONDENSER OUTLET NODE,Water,1
 Node,75,COND DEMAND BYPASS INLET NODE,Water,1
 Node,76,COND DEMAND BYPASS OUTLET NODE,Water,1
 Node,77,CONDENSER DEMAND EXIT PIPE INLET NODE,Water,1
 Node,78,CONDENSER DEMAND OUTLET NODE,Water,2
 Node,79,WATER DEMAND INLET NODE,Water,1
 Node,80,WATER DEMAND OUTLET NODE,Water,1
 Node,81,DHW SUPPLY OUTLET PIPE INLET NODE,Water,1
 Node,82,DHW SUPPLY OUTLET NODE,Water,4
 Node,83,DHW DEMAND INLET NODE,Water,2
 Node,84,DHW DEMAND INLET PIPE OUTLET NODE,Water,1
 Node,85,MAINS MAKEUP PIPE INLET NODE,Water,1
 Node,86,MAINS MAKEUP NODE,Water,2
 Node,87,MAINS INLET NODE,Water,2
 Node,88,MAINS PRESSURE OUTLET NODE,Water,1
 Node,89,WATER HEATER USE INLET NODE,Water,2
 Node,90,WATER HEATER USE OUTLET NODE,Water,2
 Node,91,SPACE1-1 NODE,Air,0
 Node,92,SPACE1-1 OUT NODE,Air,1
 Node,93,SPACE2-1 NODE,Air,1
 Node,94,SPACE2-1 OUT NODE,Air,1
 Node,95,SPACE3-1 NODE,Air,0
 Node,96,SPACE3-1 OUT NODE,Air,1
 Node,97,SPACE4-1 NODE,Air,0
 Node,98,SPACE4-1 OUT NODE,Air,1
 Node,99,SPACE5-1 NODE,Air,0
 Node,100,SPACE5-1 OUT NODE,Air,1
 Node,101,ZONE EQ IN NODE,Air,2
 Node,102,PLENUM-1 OUT NODE,Air,2
 Node,103,HPWHWATERINLETNODE,Water,2
 Node,104,HPWHWATEROUTLETNODE,Water,2
 Node,105,HPWHINLETAIRMIXERNODE,Air,1
 Node,106,HPWHDXCOILAIROUTLETNODE,Air,1
 Node,107,HPWHOUTDOORTANK OA NODE,Air,1
 Node,108,HPWHPLANTTANK OA NODE,Air,1
 Node,109,ZONE4DXCOILAIROUTLETNODE,Air,1
 Node,110,ZONE4WATERINLETNODE,Water,2
 Node,111,ZONE4WATEROUTLETNODE,Water,2
 Node,112,ZONE4BDXCOILAIROUTLETNODE,Air,1
 Node,113,ZONE4BWATERINLETNODE,Water,2
 Node,114,ZONE4BWATEROUTLETNODE,Water,2
 Node,115,HPOUTDOORFANAIROUTLETNODE,Air,1
 Node,116,HPOUTDOORAIROUTLETNODE,Air,1
 Node,117,HPOUTDOORWATERINLETNODE,Water,2
 Node,118,HPOUTDOORWATEROUTLETNODE,Water,2
 Node,119,HPSCHEDULEDFANAIROUTLETNODE,Air,1
 Node,120,HPSCHEDULEDAIROUTLETNODE,Air,1
 Node,121,HPSCHEDULEDWATERINLETNODE,Water,2
 Node,122,HPSCHEDULEDWATEROUTLETNODE,Water,2
 Node,123,HPPLANTFANAIROUTLETNODE,Air,1
 Node,124,HPPLANTAIROUTLETNODE,Air,1
 Node,125,HPPLANTWATERINLETNODE,Water,2
 Node,126,HPPLANTWATEROUTLETNODE,Water,2
 Node,127,HPWHOUTLETAIRSPLITTERNODE,Air,1
 Node,128,HPSCHEDULEDAIRINLETNODE,Air,1
 Node,129,HPWHEXHAUSTAIROUTLETNODE,Air,0
 Node,130,SPACE1-1 ATU IN NODE,Air,1
 Node,131,SPACE2-1 ATU IN NODE,Air,1
 Node,132,SPACE3-1 ATU IN NODE,Air,1
 Node,133,SPACE4-1 ATU IN NODE,Air,1
 Node,134,SPACE5-1 ATU IN NODE,Air,1
 Node,135,SPACE1-1 ZONE COIL AIR IN NODE,Air,1
 Node,136,SPACE2-1 ZONE COIL AIR IN NODE,Air,1
 Node,137,SPACE3-1 ZONE COIL AIR IN NODE,Air,1
 Node,138,SPACE4-1 ZONE COIL AIR IN NODE,Air,1
 Node,139,SPACE5-1 ZONE COIL AIR IN NODE,Air,1
 Node,140,PLENUM-1 NODE,Air,0
 Node,141,RELIEF AIR OUTLET NODE 1,Air,1
! ===============================================================
! Suspicious nodes have 0 references.  It is normal for some nodes, however.
! Listing nodes with 0 references (culled from previous list):
! <Suspicious Node>,<NodeNumber>,<Node Name>,<Node Fluid Type>,<# Times Node Referenced After Definition>
 Suspicious Node,91,SPACE1-1 NODE,Air,0
 Suspicious Node,95,SPACE3-1 NODE,Air,0
 Suspicious Node,97,SPACE4-1 NODE,Air,0
 Suspicious Node,99,SPACE5-1 NODE,Air,0
 Suspicious Node,129,HPWHEXHAUSTAIROUTLETNODE,Air,0
 Suspicious Node,140,PLENUM-1 NODE,Air,0
! ===============================================================
! <#Branch Lists>,<Number of Branch Lists>
 #Branch Lists,9
! <Branch List>,<Branch List Count>,<Branch List Name>,<Loop Name>,<Loop Type>,<Number of Branches>
! <Branch>,<Branch Count>,<Branch Name>,<Loop Name>,<Loop Type>,<Branch Inlet Node Name>,<Branch Outlet Node Name>
 Branch List,1,VAV SYS 1 BRANCHES,VAV SYS 1,Air,1
   Branch,1,VAV SYS 1 MAIN BRANCH,VAV SYS 1,Air,VAV SYS 1 INLET NODE,VAV SYS 1 OUTLET NODE
 Branch List,2,HEATING SUPPLY SIDE BRANCHES,HOT WATER LOOP,Plant Supply,4
   Branch,1,HEATING SUPPLY INLET BRANCH,HOT WATER LOOP,Plant Supply,HW SUPPLY INLET NODE,HW PUMP OUTLET NODE
   Branch,2,CENTRAL HPWH BRANCH,HOT WATER LOOP,Plant Supply,HPWH USE INLET NODE,HPWH USE OUTLET NODE
   Branch,3,HEATING SUPPLY BYPASS BRANCH,HOT WATER LOOP,Plant Supply,HEATING SUPPLY BYPASS INLET NODE,HEATING SUPPLY BYPASS OUTLET NODE
   Branch,4,HEATING SUPPLY OUTLET BRANCH,HOT WATER LOOP,Plant Supply,HEATING SUPPLY EXIT PIPE INLET NODE,HW SUPPLY OUTLET NODE
 Branch List,3,HEATING DEMAND SIDE BRANCHES,HOT WATER LOOP,Plant Demand,9
   Branch,1,HEATING DEMAND INLET BRANCH,HOT WATER LOOP,Plant Demand,HW DEMAND INLET NODE,HW DEMAND ENTRANCE PIPE OUTLET NODE
   Branch,2,SPACE1-1 REHEAT BRANCH,HOT WATER LOOP,Plant Demand,SPACE1-1 ZONE COIL WATER IN NODE,SPACE1-1 ZONE COIL WATER OUT NODE
   Branch,3,SPACE2-1 REHEAT BRANCH,HOT WATER LOOP,Plant Demand,SPACE2-1 ZONE COIL WATER IN NODE,SPACE2-1 ZONE COIL WATER OUT NODE
   Branch,4,SPACE3-1 REHEAT BRANCH,HOT WATER LOOP,Plant Demand,SPACE3-1 ZONE COIL WATER IN NODE,SPACE3-1 ZONE COIL WATER OUT NODE
   Branch,5,SPACE4-1 REHEAT BRANCH,HOT WATER LOOP,Plant Demand,SPACE4-1 ZONE COIL WATER IN NODE,SPACE4-1 ZONE COIL WATER OUT NODE
   Branch,6,SPACE5-1 REHEAT BRANCH,HOT WATER LOOP,Plant Demand,SPACE5-1 ZONE COIL WATER IN NODE,SPACE5-1 ZONE COIL WATER OUT NODE
   Branch,7,MAIN HEATING COIL 1 BRANCH,HOT WATER LOOP,Plant Demand,MAIN HEATING COIL 1 WATER INLET NODE,MAIN HEATING COIL 1 WATER OUTLET NODE
   Branch,8,HEATING DEMAND BYPASS BRANCH,HOT WATER LOOP,Plant Demand,HEATING DEMAND BYPASS INLET NODE,HEATING DEMAND BYPASS OUTLET NODE
   Branch,9,HEATING DEMAND OUTLET BRANCH,HOT WATER LOOP,Plant Demand,HW DEMAND EXIT PIPE INLET NODE,HW DEMAND OUTLET NODE
 Branch List,4,COOLING SUPPLY SIDE BRANCHES,CHILLED WATER LOOP,Plant Supply,4
   Branch,1,CW PUMP BRANCH,CHILLED WATER LOOP,Plant Supply,CW SUPPLY INLET NODE,CW PUMP OUTLET NODE
   Branch,2,CENTRAL CHILLER BRANCH,CHILLED WATER LOOP,Plant Supply,CENTRAL CHILLER INLET NODE,CENTRAL CHILLER OUTLET NODE
   Branch,3,COOLING SUPPLY BYPASS BRANCH,CHILLED WATER LOOP,Plant Supply,CW SUPPLY BYPASS INLET NODE,CW SUPPLY BYPASS OUTLET NODE
   Branch,4,COOLING SUPPLY OUTLET,CHILLED WATER LOOP,Plant Supply,SUPPLY SIDE EXIT PIPE INLET NODE,CW SUPPLY OUTLET NODE
 Branch List,5,COOLING DEMAND SIDE BRANCHES,CHILLED WATER LOOP,Plant Demand,4
   Branch,1,COOLING DEMAND INLET,CHILLED WATER LOOP,Plant Demand,CW DEMAND INLET NODE,CW DEMAND ENTRANCE PIPE OUTLET NODE
   Branch,2,COOLING COIL BRANCH,CHILLED WATER LOOP,Plant Demand,MAIN COOLING COIL 1 WATER INLET NODE,MAIN COOLING COIL 1 WATER OUTLET NODE
   Branch,3,COOLING DEMAND BYPASS BRANCH,CHILLED WATER LOOP,Plant Demand,CW DEMAND BYPASS INLET NODE,CW DEMAND BYPASS OUTLET NODE
   Branch,4,COOLING DEMAND OUTLET,CHILLED WATER LOOP,Plant Demand,CW DEMAND EXIT PIPE INLET NODE,CW DEMAND OUTLET NODE
 Branch List,6,CONDENSER SUPPLY SIDE BRANCHES,CONDENSER WATER LOOP,Condenser Supply,4
   Branch,1,CONDENSER SUPPLY INLET BRANCH,CONDENSER WATER LOOP,Condenser Supply,CONDENSER SUPPLY INLET NODE,CONDENSER PUMP OUTLET NODE
   Branch,2,CONDENSER SUPPLY TOWER BRANCH,CONDENSER WATER LOOP,Condenser Supply,CONDENSER TOWER INLET NODE,CONDENSER TOWER OUTLET NODE
   Branch,3,CONDENSER SUPPLY BYPASS BRANCH,CONDENSER WATER LOOP,Condenser Supply,COND SUPPLY BYPASS INLET NODE,COND SUPPLY BYPASS OUTLET NODE
   Branch,4,CONDENSER SUPPLY OUTLET BRANCH,CONDENSER WATER LOOP,Condenser Supply,CONDENSER SUPPLY EXIT PIPE INLET NODE,CONDENSER SUPPLY OUTLET NODE
 Branch List,7,CONDENSER DEMAND SIDE BRANCHES,CONDENSER WATER LOOP,Condenser Demand,4
   Branch,1,CONDENSER DEMAND INLET BRANCH,CONDENSER WATER LOOP,Condenser Demand,CONDENSER DEMAND INLET NODE,CONDENSER DEMAND ENTRANCE PIPE OUTLET NODE
   Branch,2,CENTRAL CHILLER CONDENSER BRANCH,CONDENSER WATER LOOP,Condenser Demand,CENTRAL CHILLER CONDENSER INLET NODE,CENTRAL CHILLER CONDENSER OUTLET NODE
   Branch,3,CONDENSER DEMAND BYPASS BRANCH,CONDENSER WATER LOOP,Condenser Demand,COND DEMAND BYPASS INLET NODE,COND DEMAND BYPASS OUTLET NODE
   Branch,4,CONDENSER DEMAND OUTLET BRANCH,CONDENSER WATER LOOP,Condenser Demand,CONDENSER DEMAND EXIT PIPE INLET NODE,CONDENSER DEMAND OUTLET NODE
 Branch List,8,DHW DEMAND BRANCHES,DHW LOOP,Plant Demand,3
   Branch,1,DHW DEMAND INLET BRANCH,DHW LOOP,Plant Demand,DHW DEMAND INLET NODE,DHW DEMAND INLET PIPE OUTLET NODE
   Branch,2,WATER DEMAND BRANCH,DHW LOOP,Plant Demand,WATER DEMAND INLET NODE,WATER DEMAND OUTLET NODE
   Branch,3,MAINS MAKEUP BRANCH,DHW LOOP,Plant Demand,MAINS MAKEUP PIPE INLET NODE,MAINS MAKEUP NODE
 Branch List,9,DHW SUPPLY BRANCHES,DHW LOOP,Plant Supply,3
   Branch,1,MAINS INLET BRANCH,DHW LOOP,Plant Supply,MAINS INLET NODE,MAINS PRESSURE OUTLET NODE
   Branch,2,WATER HEATER BRANCH,DHW LOOP,Plant Supply,WATER HEATER USE INLET NODE,WATER HEATER USE OUTLET NODE
   Branch,3,DHW SUPPLY OUTLET BRANCH,DHW LOOP,Plant Supply,DHW SUPPLY OUTLET PIPE INLET NODE,DHW SUPPLY OUTLET NODE
! ===============================================================
! <#Supply Air Paths>,<Number of Supply Air Paths>
 #Supply Air Paths,1
! <Supply Air Path>,<Supply Air Path Count>,<Supply Air Path Name>,<AirLoopHVAC Name>
! <#Components on Supply Air Path>,<Number of Components>
! <Supply Air Path Component>,<Component Count>,<Component Type>,<Component Name>,<AirLoopHVAC Name>
! <#Outlet Nodes on Supply Air Path Component>,<Number of Nodes>
! <Supply Air Path Component Nodes>,<Node Count>,<Component Type>,<Component Name>,<Inlet Node Name>,<Outlet Node Name>,<AirLoopHVAC Name>
 Supply Air Path,1,ZONE SUPPLY AIR PATH 1,VAV SYS 1
   #Components on Supply Air Path,1
   Supply Air Path Component,1,AIRLOOPHVAC:ZONESPLITTER,ZONE SUPPLY AIR SPLITTER 1,VAV SYS 1
     #Outlet Nodes on Supply Air Path Component,5
     Supply Air Path Component Nodes,1,AIRLOOPHVAC:ZONESPLITTER,ZONE SUPPLY AIR SPLITTER 1,ZONE EQ IN NODE,SPACE1-1 ATU IN NODE,VAV SYS 1
     Supply Air Path Component Nodes,2,AIRLOOPHVAC:ZONESPLITTER,ZONE SUPPLY AIR SPLITTER 1,ZONE EQ IN NODE,SPACE2-1 ATU IN NODE,VAV SYS 1
     Supply Air Path Component Nodes,3,AIRLOOPHVAC:ZONESPLITTER,ZONE SUPPLY AIR SPLITTER 1,ZONE EQ IN NODE,SPACE3-1 ATU IN NODE,VAV SYS 1
     Supply Air Path Component Nodes,4,AIRLOOPHVAC:ZONESPLITTER,ZONE SUPPLY AIR SPLITTER 1,ZONE EQ IN NODE,SPACE4-1 ATU IN NODE,VAV SYS 1
     Supply Air Path Component Nodes,5,AIRLOOPHVAC:ZONESPLITTER,ZONE SUPPLY AIR SPLITTER 1,ZONE EQ IN NODE,SPACE5-1 ATU IN NODE,VAV SYS 1
! <#Nodes on Supply Air Path>,<Number of Nodes>
! <Supply Air Path Node>,<Node Type>,<Node Count>,<Node Name>,<AirLoopHVAC Name>
#Nodes on Supply Air Path,6
   Supply Air Path Node,Inlet Node,1,ZONE EQ IN NODE,VAV SYS 1
   Supply Air Path Node,Outlet Node,2,SPACE1-1 ATU IN NODE,VAV SYS 1
   Supply Air Path Node,Outlet Node,3,SPACE2-1 ATU IN NODE,VAV SYS 1
   Supply Air Path Node,Outlet Node,4,SPACE3-1 ATU IN NODE,VAV SYS 1
   Supply Air Path Node,Outlet Node,5,SPACE4-1 ATU IN NODE,VAV SYS 1
   Supply Air Path Node,Outlet Node,6,SPACE5-1 ATU IN NODE,VAV SYS 1
! ===============================================================
! <#Return Air Paths>,<Number of Return Air Paths>
 #Return Air Paths,1
! <Return Air Path>,<Return Air Path Count>,<Return Air Path Name>,<AirLoopHVAC Name>
! <#Components on Return Air Path>,<Number of Components>
! <Return Air Path Component>,<Component Count>,<Component Type>,<Component Name>,<AirLoopHVAC Name>
! <#Inlet Nodes on Return Air Path Component>,<Number of Nodes>
! <Return Air Path Component Nodes>,<Node Count>,<Component Type>,<Component Name>,<Inlet Node Name>,<Outlet Node Name>,<AirLoopHVAC Name>
 Return Air Path,1,RETURNAIRPATH1,VAV SYS 1
   #Components on Return Air Path,1
   Return Air Path Component,1,AIRLOOPHVAC:RETURNPLENUM,RETURN-PLENUM-1,VAV SYS 1
     #Inlet Nodes on Return Air Path Component,5
     Return Air Path Component Nodes,1,AIRLOOPHVAC:RETURNPLENUM,RETURN-PLENUM-1,SPACE1-1 OUT NODE,PLENUM-1 OUT NODE,VAV SYS 1
     Return Air Path Component Nodes,2,AIRLOOPHVAC:RETURNPLENUM,RETURN-PLENUM-1,SPACE2-1 OUT NODE,PLENUM-1 OUT NODE,VAV SYS 1
     Return Air Path Component Nodes,3,AIRLOOPHVAC:RETURNPLENUM,RETURN-PLENUM-1,SPACE3-1 OUT NODE,PLENUM-1 OUT NODE,VAV SYS 1
     Return Air Path Component Nodes,4,AIRLOOPHVAC:RETURNPLENUM,RETURN-PLENUM-1,SPACE4-1 OUT NODE,PLENUM-1 OUT NODE,VAV SYS 1
     Return Air Path Component Nodes,5,AIRLOOPHVAC:RETURNPLENUM,RETURN-PLENUM-1,SPACE5-1 OUT NODE,PLENUM-1 OUT NODE,VAV SYS 1
! <#Nodes on Return Air Path>,<Number of Nodes>
! <Return Air Path Node>,<Node Type>,<Node Count>,<Node Name>,<AirLoopHVAC Name>
   #Nodes on Return Air Path,6
   Return Air Path Node,Outlet Node,1,PLENUM-1 OUT NODE,VAV SYS 1
   Return Air Path Node,Inlet Node,2,SPACE1-1 OUT NODE,VAV SYS 1
   Return Air Path Node,Inlet Node,3,SPACE2-1 OUT NODE,VAV SYS 1
   Return Air Path Node,Inlet Node,4,SPACE3-1 OUT NODE,VAV SYS 1
   Return Air Path Node,Inlet Node,5,SPACE4-1 OUT NODE,VAV SYS 1
   Return Air Path Node,Inlet Node,6,SPACE5-1 OUT NODE,VAV SYS 1
! ===============================================================
! #Outdoor Air Nodes,<Number of Outdoor Air Nodes>
 #Outdoor Air Nodes,6
! <Outdoor Air Node>,<NodeNumber>,<Node Name>
 Outdoor Air Node,1,OUTSIDE AIR INLET NODE 1
 Outdoor Air Node,2,HPOUTDOORAIRINLETNODE
 Outdoor Air Node,3,HPPLANTAIRINLETNODE
 Outdoor Air Node,4,HPWHOUTDOORAIRINLETNODE
 Outdoor Air Node,107,HPWHOUTDOORTANK OA NODE
 Outdoor Air Node,108,HPWHPLANTTANK OA NODE
! ===============================================================
! <#Component Sets>,<Number of Component Sets>
 #Component Sets,74
! <Component Set>,<Component Set Count>,<Parent Object Type>,<Parent Object Name>,<Component Type>,<Component Name>,<Inlet Node ID>,<Outlet Node ID>,<Description>
 Component Set,1,BRANCH,VAV SYS 1 MAIN BRANCH,AIRLOOPHVAC:OUTDOORAIRSYSTEM,OA SYS 1,VAV SYS 1 INLET NODE,MIXED AIR NODE 1,Air Nodes
 Component Set,2,BRANCH,VAV SYS 1 MAIN BRANCH,COIL:COOLING:WATER,MAIN COOLING COIL 1,MIXED AIR NODE 1,MAIN COOLING COIL 1 OUTLET NODE,Air Nodes
 Component Set,3,BRANCH,VAV SYS 1 MAIN BRANCH,COIL:HEATING:WATER,MAIN HEATING COIL 1,MAIN COOLING COIL 1 OUTLET NODE,MAIN HEATING COIL 1 OUTLET NODE,Air Nodes
 Component Set,4,BRANCH,VAV SYS 1 MAIN BRANCH,FAN:VARIABLEVOLUME,SUPPLY FAN 1,MAIN HEATING COIL 1 OUTLET NODE,VAV SYS 1 OUTLET NODE,Air Nodes
 Component Set,5,BRANCH,HEATING SUPPLY INLET BRANCH,PUMP:VARIABLESPEED,HW CIRC PUMP,HW SUPPLY INLET NODE,HW PUMP OUTLET NODE,Water Nodes
 Component Set,6,BRANCH,CENTRAL HPWH BRANCH,WATERHEATER:HEATPUMP:PUMPEDCONDENSER,PLANTHEATPUMPWATERHEATER,HPWH USE INLET NODE,HPWH USE OUTLET NODE,Water Nodes
 Component Set,7,BRANCH,HEATING SUPPLY BYPASS BRANCH,PIPE:ADIABATIC,HEATING SUPPLY SIDE BYPASS,HEATING SUPPLY BYPASS INLET NODE,HEATING SUPPLY BYPASS OUTLET NODE,Pipe Nodes
 Component Set,8,BRANCH,HEATING SUPPLY OUTLET BRANCH,PIPE:ADIABATIC,HEATING SUPPLY OUTLET,HEATING SUPPLY EXIT PIPE INLET NODE,HW SUPPLY OUTLET NODE,Pipe Nodes
 Component Set,9,BRANCH,HEATING DEMAND INLET BRANCH,PIPE:ADIABATIC,HEATING DEMAND INLET PIPE,HW DEMAND INLET NODE,HW DEMAND ENTRANCE PIPE OUTLET NODE,Pipe Nodes
 Component Set,10,BRANCH,HEATING DEMAND OUTLET BRANCH,PIPE:ADIABATIC,HEATING DEMAND OUTLET PIPE,HW DEMAND EXIT PIPE INLET NODE,HW DEMAND OUTLET NODE,Pipe Nodes
 Component Set,11,BRANCH,SPACE1-1 REHEAT BRANCH,COIL:HEATING:WATER,SPACE1-1 ZONE COIL,SPACE1-1 ZONE COIL WATER IN NODE,SPACE1-1 ZONE COIL WATER OUT NODE,Water Nodes
 Component Set,12,BRANCH,SPACE2-1 REHEAT BRANCH,COIL:HEATING:WATER,SPACE2-1 ZONE COIL,SPACE2-1 ZONE COIL WATER IN NODE,SPACE2-1 ZONE COIL WATER OUT NODE,Water Nodes
 Component Set,13,BRANCH,SPACE3-1 REHEAT BRANCH,COIL:HEATING:WATER,SPACE3-1 ZONE COIL,SPACE3-1 ZONE COIL WATER IN NODE,SPACE3-1 ZONE COIL WATER OUT NODE,Water Nodes
 Component Set,14,BRANCH,SPACE4-1 REHEAT BRANCH,COIL:HEATING:WATER,SPACE4-1 ZONE COIL,SPACE4-1 ZONE COIL WATER IN NODE,SPACE4-1 ZONE COIL WATER OUT NODE,Water Nodes
 Component Set,15,BRANCH,SPACE5-1 REHEAT BRANCH,COIL:HEATING:WATER,SPACE5-1 ZONE COIL,SPACE5-1 ZONE COIL WATER IN NODE,SPACE5-1 ZONE COIL WATER OUT NODE,Water Nodes
 Component Set,16,BRANCH,MAIN HEATING COIL 1 BRANCH,COIL:HEATING:WATER,MAIN HEATING COIL 1,MAIN HEATING COIL 1 WATER INLET NODE,MAIN HEATING COIL 1 WATER OUTLET NODE,Water Nodes
 Component Set,17,BRANCH,HEATING DEMAND BYPASS BRANCH,PIPE:ADIABATIC,HEATING DEMAND BYPASS,HEATING DEMAND BYPASS INLET NODE,HEATING DEMAND BYPASS OUTLET NODE,Pipe Nodes
 Component Set,18,BRANCH,COOLING DEMAND INLET,PIPE:ADIABATIC,COOLING DEMAND SIDE INLET PIPE,CW DEMAND INLET NODE,CW DEMAND ENTRANCE PIPE OUTLET NODE,Pipe Nodes
 Component Set,19,BRANCH,COOLING COIL BRANCH,COIL:COOLING:WATER,MAIN COOLING COIL 1,MAIN COOLING COIL 1 WATER INLET NODE,MAIN COOLING COIL 1 WATER OUTLET NODE,Water Nodes
 Component Set,20,BRANCH,COOLING DEMAND BYPASS BRANCH,PIPE:ADIABATIC,COOLING DEMAND SIDE BYPASS,CW DEMAND BYPASS INLET NODE,CW DEMAND BYPASS OUTLET NODE,Pipe Nodes
 Component Set,21,BRANCH,COOLING DEMAND OUTLET,PIPE:ADIABATIC,CW DEMAND SIDE OUTLET PIPE,CW DEMAND EXIT PIPE INLET NODE,CW DEMAND OUTLET NODE,Pipe Nodes
 Component Set,22,BRANCH,COOLING SUPPLY OUTLET,PIPE:ADIABATIC,SUPPLY SIDE OUTLET PIPE,SUPPLY SIDE EXIT PIPE INLET NODE,CW SUPPLY OUTLET NODE,Pipe Nodes
 Component Set,23,BRANCH,CW PUMP BRANCH,PUMP:VARIABLESPEED,CW CIRC PUMP,CW SUPPLY INLET NODE,CW PUMP OUTLET NODE,Water Nodes
 Component Set,24,BRANCH,CENTRAL CHILLER BRANCH,CHILLER:ELECTRIC,CENTRAL CHILLER,CENTRAL CHILLER INLET NODE,CENTRAL CHILLER OUTLET NODE,Chilled Water Nodes
 Component Set,25,BRANCH,COOLING SUPPLY BYPASS BRANCH,PIPE:ADIABATIC,SUPPLY SIDE BYPASS,CW SUPPLY BYPASS INLET NODE,CW SUPPLY BYPASS OUTLET NODE,Pipe Nodes
 Component Set,26,BRANCH,CONDENSER SUPPLY INLET BRANCH,PUMP:VARIABLESPEED,COND CIRC PUMP,CONDENSER SUPPLY INLET NODE,CONDENSER PUMP OUTLET NODE,Water Nodes
 Component Set,27,BRANCH,CONDENSER SUPPLY TOWER BRANCH,COOLINGTOWER:SINGLESPEED,CENTRAL TOWER,CONDENSER TOWER INLET NODE,CONDENSER TOWER OUTLET NODE,Chilled Water Nodes
 Component Set,28,BRANCH,CONDENSER SUPPLY BYPASS BRANCH,PIPE:ADIABATIC,CONDENSER SUPPLY SIDE BYPASS,COND SUPPLY BYPASS INLET NODE,COND SUPPLY BYPASS OUTLET NODE,Pipe Nodes
 Component Set,29,BRANCH,CONDENSER SUPPLY OUTLET BRANCH,PIPE:ADIABATIC,CONDENSER SUPPLY OUTLET,CONDENSER SUPPLY EXIT PIPE INLET NODE,CONDENSER SUPPLY OUTLET NODE,Pipe Nodes
 Component Set,30,BRANCH,CONDENSER DEMAND INLET BRANCH,PIPE:ADIABATIC,CONDENSER DEMAND INLET PIPE,CONDENSER DEMAND INLET NODE,CONDENSER DEMAND ENTRANCE PIPE OUTLET NODE,Pipe Nodes
 Component Set,31,BRANCH,CENTRAL CHILLER CONDENSER BRANCH,CHILLER:ELECTRIC,CENTRAL CHILLER,CENTRAL CHILLER CONDENSER INLET NODE,CENTRAL CHILLER CONDENSER OUTLET NODE,Condenser Water Nodes
 Component Set,32,BRANCH,CONDENSER DEMAND BYPASS BRANCH,PIPE:ADIABATIC,CONDENSER DEMAND SIDE BYPASS,COND DEMAND BYPASS INLET NODE,COND DEMAND BYPASS OUTLET NODE,Pipe Nodes
 Component Set,33,BRANCH,CONDENSER DEMAND OUTLET BRANCH,PIPE:ADIABATIC,CONDENSER DEMAND OUTLET PIPE,CONDENSER DEMAND EXIT PIPE INLET NODE,CONDENSER DEMAND OUTLET NODE,Pipe Nodes
 Component Set,34,BRANCH,WATER DEMAND BRANCH,WATERUSE:CONNECTIONS,DOMESTIC HOT WATER,WATER DEMAND INLET NODE,WATER DEMAND OUTLET NODE,DHW Nodes
 Component Set,35,BRANCH,DHW SUPPLY OUTLET BRANCH,PIPE:ADIABATIC,DHW SUPPLY OUTLET PIPE,DHW SUPPLY OUTLET PIPE INLET NODE,DHW SUPPLY OUTLET NODE,Pipe Nodes
 Component Set,36,BRANCH,DHW DEMAND INLET BRANCH,PIPE:ADIABATIC,DHW DEMAND INLET PIPE,DHW DEMAND INLET NODE,DHW DEMAND INLET PIPE OUTLET NODE,Pipe Nodes
 Component Set,37,BRANCH,MAINS MAKEUP BRANCH,PIPE:ADIABATIC,MAINS MAKEUP PIPE,MAINS MAKEUP PIPE INLET NODE,MAINS MAKEUP NODE,Pipe Nodes
 Component Set,38,BRANCH,MAINS INLET BRANCH,PUMP:VARIABLESPEED,MAINS PRESSURE,MAINS INLET NODE,MAINS PRESSURE OUTLET NODE,Water Nodes
 Component Set,39,BRANCH,WATER HEATER BRANCH,WATERHEATER:HEATPUMP:PUMPEDCONDENSER,ZONE4BHEATPUMPWATERHEATER,WATER HEATER USE INLET NODE,WATER HEATER USE OUTLET NODE,Water Nodes
 Component Set,40,WATERHEATER:HEATPUMP:PUMPEDCONDENSER,ZONE5HEATPUMPWATERHEATER,COIL:WATERHEATING:AIRTOWATERHEATPUMP:PUMPED,HPWHDXCOIL,HPWHINLETAIRMIXERNODE,HPWHDXCOILAIROUTLETNODE,Air Nodes
 Component Set,41,WATERHEATER:HEATPUMP:PUMPEDCONDENSER,ZONE5HEATPUMPWATERHEATER,COIL:WATERHEATING:AIRTOWATERHEATPUMP:PUMPED,HPWHDXCOIL,HPWHWATERINLETNODE,HPWHWATEROUTLETNODE,HPWH To Coil
 Component Set,42,WATERHEATER:HEATPUMP:PUMPEDCONDENSER,ZONE4HEATPUMPWATERHEATER,COIL:WATERHEATING:AIRTOWATERHEATPUMP:PUMPED,ZONE4HPWHDXCOIL,ZONE4AIROUTLETNODE,ZONE4DXCOILAIROUTLETNODE,Air Nodes
 Component Set,43,WATERHEATER:HEATPUMP:PUMPEDCONDENSER,ZONE4HEATPUMPWATERHEATER,COIL:WATERHEATING:AIRTOWATERHEATPUMP:PUMPED,ZONE4HPWHDXCOIL,ZONE4WATERINLETNODE,ZONE4WATEROUTLETNODE,HPWH To Coil
 Component Set,44,WATERHEATER:HEATPUMP:PUMPEDCONDENSER,ZONE4BHEATPUMPWATERHEATER,COIL:WATERHEATING:AIRTOWATERHEATPUMP:PUMPED,ZONE4BHPWHDXCOIL,ZONE4BAIROUTLETNODE,ZONE4BDXCOILAIROUTLETNODE,Air Nodes
 Component Set,45,WATERHEATER:HEATPUMP:PUMPEDCONDENSER,ZONE4BHEATPUMPWATERHEATER,COIL:WATERHEATING:AIRTOWATERHEATPUMP:PUMPED,ZONE4BHPWHDXCOIL,ZONE4BWATERINLETNODE,ZONE4BWATEROUTLETNODE,HPWH To Coil
 Component Set,46,WATERHEATER:HEATPUMP:PUMPEDCONDENSER,OUTDOORHEATPUMPWATERHEATER,COIL:WATERHEATING:AIRTOWATERHEATPUMP:PUMPED,HPWHOUTDOORDXCOIL,HPOUTDOORFANAIROUTLETNODE,HPOUTDOORAIROUTLETNODE,Air Nodes
 Component Set,47,WATERHEATER:HEATPUMP:PUMPEDCONDENSER,OUTDOORHEATPUMPWATERHEATER,COIL:WATERHEATING:AIRTOWATERHEATPUMP:PUMPED,HPWHOUTDOORDXCOIL,HPOUTDOORWATERINLETNODE,HPOUTDOORWATEROUTLETNODE,HPWH To Coil
 Component Set,48,WATERHEATER:HEATPUMP:PUMPEDCONDENSER,SCHEDULEDHEATPUMPWATERHEATER,COIL:WATERHEATING:AIRTOWATERHEATPUMP:PUMPED,HPWHSCHEDULEDDXCOIL,HPSCHEDULEDFANAIROUTLETNODE,HPSCHEDULEDAIROUTLETNODE,Air Nodes
 Component Set,49,WATERHEATER:HEATPUMP:PUMPEDCONDENSER,SCHEDULEDHEATPUMPWATERHEATER,COIL:WATERHEATING:AIRTOWATERHEATPUMP:PUMPED,HPWHSCHEDULEDDXCOIL,HPSCHEDULEDWATERINLETNODE,HPSCHEDULEDWATEROUTLETNODE,HPWH To Coil
 Component Set,50,WATERHEATER:HEATPUMP:PUMPEDCONDENSER,PLANTHEATPUMPWATERHEATER,COIL:WATERHEATING:AIRTOWATERHEATPUMP:PUMPED,HPWHPLANTDXCOIL,HPPLANTFANAIROUTLETNODE,HPPLANTAIROUTLETNODE,Air Nodes
 Component Set,51,WATERHEATER:HEATPUMP:PUMPEDCONDENSER,PLANTHEATPUMPWATERHEATER,COIL:WATERHEATING:AIRTOWATERHEATPUMP:PUMPED,HPWHPLANTDXCOIL,HPPLANTWATERINLETNODE,HPPLANTWATEROUTLETNODE,HPWH To Coil
 Component Set,52,WATERHEATER:HEATPUMP:PUMPEDCONDENSER,ZONE5HEATPUMPWATERHEATER,FAN:ONOFF,HPWHFAN,HPWHDXCOILAIROUTLETNODE,HPWHOUTLETAIRSPLITTERNODE,Air Nodes
 Component Set,53,WATERHEATER:HEATPUMP:PUMPEDCONDENSER,ZONE4HEATPUMPWATERHEATER,FAN:ONOFF,ZONE4HPWHFAN,ZONE4DXCOILAIROUTLETNODE,ZONE4AIRINLETNODE,Air Nodes
 Component Set,54,WATERHEATER:HEATPUMP:PUMPEDCONDENSER,ZONE4BHEATPUMPWATERHEATER,FAN:ONOFF,ZONE4BHPWHFAN,ZONE4BDXCOILAIROUTLETNODE,ZONE4BAIRINLETNODE,Air Nodes
 Component Set,55,WATERHEATER:HEATPUMP:PUMPEDCONDENSER,OUTDOORHEATPUMPWATERHEATER,FAN:ONOFF,HPWHOUTDOORFAN,HPOUTDOORAIRINLETNODE,HPOUTDOORFANAIROUTLETNODE,Air Nodes
 Component Set,56,WATERHEATER:HEATPUMP:PUMPEDCONDENSER,SCHEDULEDHEATPUMPWATERHEATER,FAN:ONOFF,HPWHSCHEDULEDFAN,HPSCHEDULEDAIRINLETNODE,HPSCHEDULEDFANAIROUTLETNODE,Air Nodes
 Component Set,57,WATERHEATER:HEATPUMP:PUMPEDCONDENSER,PLANTHEATPUMPWATERHEATER,FAN:ONOFF,HPWHPLANTFAN,HPPLANTAIRINLETNODE,HPPLANTFANAIROUTLETNODE,Air Nodes
 Component Set,58,WATERHEATER:HEATPUMP:PUMPEDCONDENSER,ZONE5HEATPUMPWATERHEATER,WATERHEATER:STRATIFIED,HPWHTANK,HPWHWATEROUTLETNODE,HPWHWATERINLETNODE,HPWH To Tank
 Component Set,59,WATERHEATER:HEATPUMP:PUMPEDCONDENSER,ZONE4HEATPUMPWATERHEATER,WATERHEATER:STRATIFIED,ZONE4HPWHTANK,ZONE4WATEROUTLETNODE,ZONE4WATERINLETNODE,HPWH To Tank
 Component Set,60,WATERHEATER:HEATPUMP:PUMPEDCONDENSER,ZONE4BHEATPUMPWATERHEATER,WATERHEATER:STRATIFIED,ZONE4BHPWHTANK,ZONE4BWATEROUTLETNODE,ZONE4BWATERINLETNODE,HPWH To Tank
 Component Set,61,WATERHEATER:HEATPUMP:PUMPEDCONDENSER,OUTDOORHEATPUMPWATERHEATER,WATERHEATER:STRATIFIED,HPWHOUTDOORTANK,HPOUTDOORWATEROUTLETNODE,HPOUTDOORWATERINLETNODE,HPWH To Tank
 Component Set,62,WATERHEATER:HEATPUMP:PUMPEDCONDENSER,SCHEDULEDHEATPUMPWATERHEATER,WATERHEATER:STRATIFIED,HPWHSCHEDULEDTANK,HPSCHEDULEDWATEROUTLETNODE,HPSCHEDULEDWATERINLETNODE,HPWH To Tank
 Component Set,63,WATERHEATER:HEATPUMP:PUMPEDCONDENSER,PLANTHEATPUMPWATERHEATER,WATERHEATER:STRATIFIED,HPWHPLANTTANK,HPPLANTWATEROUTLETNODE,HPPLANTWATERINLETNODE,HPWH To Tank
 Component Set,64,ZONEHVAC:AIRDISTRIBUTIONUNIT,SPACE1-1 ATU,AIRTERMINAL:SINGLEDUCT:VAV:REHEAT,SPACE1-1 VAV REHEAT,SPACE1-1 ATU IN NODE,SPACE1-1 IN NODE,Air Nodes
 Component Set,65,ZONEHVAC:AIRDISTRIBUTIONUNIT,SPACE2-1 ATU,AIRTERMINAL:SINGLEDUCT:VAV:REHEAT,SPACE2-1 VAV REHEAT,SPACE2-1 ATU IN NODE,SPACE2-1 IN NODE,Air Nodes
 Component Set,66,ZONEHVAC:AIRDISTRIBUTIONUNIT,SPACE3-1 ATU,AIRTERMINAL:SINGLEDUCT:VAV:REHEAT,SPACE3-1 VAV REHEAT,SPACE3-1 ATU IN NODE,SPACE3-1 IN NODE,Air Nodes
 Component Set,67,ZONEHVAC:AIRDISTRIBUTIONUNIT,SPACE4-1 ATU,AIRTERMINAL:SINGLEDUCT:VAV:REHEAT,SPACE4-1 VAV REHEAT,SPACE4-1 ATU IN NODE,SPACE4-1 IN NODE,Air Nodes
 Component Set,68,ZONEHVAC:AIRDISTRIBUTIONUNIT,SPACE5-1 ATU,AIRTERMINAL:SINGLEDUCT:VAV:REHEAT,SPACE5-1 VAV REHEAT,SPACE5-1 ATU IN NODE,SPACE5-1 IN NODE,Air Nodes
 Component Set,69,AIRTERMINAL:SINGLEDUCT:VAV:REHEAT,SPACE1-1 VAV REHEAT,COIL:HEATING:WATER,SPACE1-1 ZONE COIL,SPACE1-1 ZONE COIL AIR IN NODE,SPACE1-1 IN NODE,Air Nodes
 Component Set,70,AIRTERMINAL:SINGLEDUCT:VAV:REHEAT,SPACE2-1 VAV REHEAT,COIL:HEATING:WATER,SPACE2-1 ZONE COIL,SPACE2-1 ZONE COIL AIR IN NODE,SPACE2-1 IN NODE,Air Nodes
 Component Set,71,AIRTERMINAL:SINGLEDUCT:VAV:REHEAT,SPACE3-1 VAV REHEAT,COIL:HEATING:WATER,SPACE3-1 ZONE COIL,SPACE3-1 ZONE COIL AIR IN NODE,SPACE3-1 IN NODE,Air Nodes
 Component Set,72,AIRTERMINAL:SINGLEDUCT:VAV:REHEAT,SPACE4-1 VAV REHEAT,COIL:HEATING:WATER,SPACE4-1 ZONE COIL,SPACE4-1 ZONE COIL AIR IN NODE,SPACE4-1 IN NODE,Air Nodes
 Component Set,73,AIRTERMINAL:SINGLEDUCT:VAV:REHEAT,SPACE5-1 VAV REHEAT,COIL:HEATING:WATER,SPACE5-1 ZONE COIL,SPACE5-1 ZONE COIL AIR IN NODE,SPACE5-1 IN NODE,Air Nodes
 Component Set,74,AIRLOOPHVAC:OUTDOORAIRSYSTEM,OA SYS 1,OUTDOORAIR:MIXER,OA MIXING BOX 1,OUTSIDE AIR INLET NODE 1,MIXED AIR NODE 1,Air Nodes
! ===============================================================
! <# Plant Loops>,<Number of Plant Loops>
 #Plant Loops,3
! <Plant Loop>,<Plant Loop Name>,<Loop Type>,<Inlet Node Name>,<Outlet Node Name>,<Branch List>,<Connector List>
! <Plant Loop Connector>,<Connector Type>,<Connector Name>,<Loop Name>,<Loop Type>,<Number of Inlets/Outlets>
! <Plant Loop Connector Branches>,<Connector Node Count>,<Connector Type>,<Connector Name>,<Inlet Branch>,<Outlet Branch>,<Loop Name>,<Loop Type>
! <Plant Loop Connector Nodes>,<Connector Node Count>,<Connector Type>,<Connector Name>,<Inlet Node>,<Outlet Node>,<Loop Name>,<Loop Type>
! <Plant Loop Supply Connection>,<Plant Loop Name>,<Supply Side Outlet Node Name>,<Demand Side Inlet Node Name>
! <Plant Loop Return Connection>,<Plant Loop Name>,<Demand Side Outlet Node Name>,<Supply Side Inlet Node Name>
 Plant Loop,HOT WATER LOOP,Demand,HW DEMAND INLET NODE,HW DEMAND OUTLET NODE,HEATING DEMAND SIDE BRANCHES,HEATING DEMAND SIDE CONNECTORS
   Plant Loop Connector,Splitter,HEATING DEMAND SPLITTER,HOT WATER LOOP,Demand,7
     Plant Loop Connector Branches,1,Splitter,HEATING DEMAND SPLITTER,HEATING DEMAND INLET BRANCH,SPACE1-1 REHEAT BRANCH,HOT WATER LOOP,Demand
     Plant Loop Connector Nodes,   1,Splitter,HEATING DEMAND SPLITTER,HW DEMAND ENTRANCE PIPE OUTLET NODE,SPACE1-1 ZONE COIL WATER IN NODE,HOT WATER LOOP,Demand
     Plant Loop Connector Branches,2,Splitter,HEATING DEMAND SPLITTER,HEATING DEMAND INLET BRANCH,SPACE2-1 REHEAT BRANCH,HOT WATER LOOP,Demand
     Plant Loop Connector Nodes,   2,Splitter,HEATING DEMAND SPLITTER,HW DEMAND ENTRANCE PIPE OUTLET NODE,SPACE2-1 ZONE COIL WATER IN NODE,HOT WATER LOOP,Demand
     Plant Loop Connector Branches,3,Splitter,HEATING DEMAND SPLITTER,HEATING DEMAND INLET BRANCH,SPACE3-1 REHEAT BRANCH,HOT WATER LOOP,Demand
     Plant Loop Connector Nodes,   3,Splitter,HEATING DEMAND SPLITTER,HW DEMAND ENTRANCE PIPE OUTLET NODE,SPACE3-1 ZONE COIL WATER IN NODE,HOT WATER LOOP,Demand
     Plant Loop Connector Branches,4,Splitter,HEATING DEMAND SPLITTER,HEATING DEMAND INLET BRANCH,SPACE4-1 REHEAT BRANCH,HOT WATER LOOP,Demand
     Plant Loop Connector Nodes,   4,Splitter,HEATING DEMAND SPLITTER,HW DEMAND ENTRANCE PIPE OUTLET NODE,SPACE4-1 ZONE COIL WATER IN NODE,HOT WATER LOOP,Demand
     Plant Loop Connector Branches,5,Splitter,HEATING DEMAND SPLITTER,HEATING DEMAND INLET BRANCH,SPACE5-1 REHEAT BRANCH,HOT WATER LOOP,Demand
     Plant Loop Connector Nodes,   5,Splitter,HEATING DEMAND SPLITTER,HW DEMAND ENTRANCE PIPE OUTLET NODE,SPACE5-1 ZONE COIL WATER IN NODE,HOT WATER LOOP,Demand
     Plant Loop Connector Branches,6,Splitter,HEATING DEMAND SPLITTER,HEATING DEMAND INLET BRANCH,MAIN HEATING COIL 1 BRANCH,HOT WATER LOOP,Demand
     Plant Loop Connector Nodes,   6,Splitter,HEATING DEMAND SPLITTER,HW DEMAND ENTRANCE PIPE OUTLET NODE,MAIN HEATING COIL 1 WATER INLET NODE,HOT WATER LOOP,Demand
     Plant Loop Connector Branches,7,Splitter,HEATING DEMAND SPLITTER,HEATING DEMAND INLET BRANCH,HEATING DEMAND BYPASS BRANCH,HOT WATER LOOP,Demand
     Plant Loop Connector Nodes,   7,Splitter,HEATING DEMAND SPLITTER,HW DEMAND ENTRANCE PIPE OUTLET NODE,HEATING DEMAND BYPASS INLET NODE,HOT WATER LOOP,Demand
   Plant Loop Connector,Mixer,HEATING DEMAND MIXER,HOT WATER LOOP,Demand,7
     Plant Loop Connector Branches,1,Mixer,HEATING DEMAND MIXER,SPACE1-1 REHEAT BRANCH,HEATING DEMAND OUTLET BRANCH,HOT WATER LOOP,Demand
     Plant Loop Connector Nodes,   1,Mixer,HEATING DEMAND MIXER,SPACE1-1 ZONE COIL WATER OUT NODE,HW DEMAND EXIT PIPE INLET NODE,HOT WATER LOOP,Demand
     Plant Loop Connector Branches,2,Mixer,HEATING DEMAND MIXER,SPACE2-1 REHEAT BRANCH,HEATING DEMAND OUTLET BRANCH,HOT WATER LOOP,Demand
     Plant Loop Connector Nodes,   2,Mixer,HEATING DEMAND MIXER,SPACE2-1 ZONE COIL WATER OUT NODE,HW DEMAND EXIT PIPE INLET NODE,HOT WATER LOOP,Demand
     Plant Loop Connector Branches,3,Mixer,HEATING DEMAND MIXER,SPACE3-1 REHEAT BRANCH,HEATING DEMAND OUTLET BRANCH,HOT WATER LOOP,Demand
     Plant Loop Connector Nodes,   3,Mixer,HEATING DEMAND MIXER,SPACE3-1 ZONE COIL WATER OUT NODE,HW DEMAND EXIT PIPE INLET NODE,HOT WATER LOOP,Demand
     Plant Loop Connector Branches,4,Mixer,HEATING DEMAND MIXER,SPACE4-1 REHEAT BRANCH,HEATING DEMAND OUTLET BRANCH,HOT WATER LOOP,Demand
     Plant Loop Connector Nodes,   4,Mixer,HEATING DEMAND MIXER,SPACE4-1 ZONE COIL WATER OUT NODE,HW DEMAND EXIT PIPE INLET NODE,HOT WATER LOOP,Demand
     Plant Loop Connector Branches,5,Mixer,HEATING DEMAND MIXER,SPACE5-1 REHEAT BRANCH,HEATING DEMAND OUTLET BRANCH,HOT WATER LOOP,Demand
     Plant Loop Connector Nodes,   5,Mixer,HEATING DEMAND MIXER,SPACE5-1 ZONE COIL WATER OUT NODE,HW DEMAND EXIT PIPE INLET NODE,HOT WATER LOOP,Demand
     Plant Loop Connector Branches,6,Mixer,HEATING DEMAND MIXER,MAIN HEATING COIL 1 BRANCH,HEATING DEMAND OUTLET BRANCH,HOT WATER LOOP,Demand
     Plant Loop Connector Nodes,   6,Mixer,HEATING DEMAND MIXER,MAIN HEATING COIL 1 WATER OUTLET NODE,HW DEMAND EXIT PIPE INLET NODE,HOT WATER LOOP,Demand
     Plant Loop Connector Branches,7,Mixer,HEATING DEMAND MIXER,HEATING DEMAND BYPASS BRANCH,HEATING DEMAND OUTLET BRANCH,HOT WATER LOOP,Demand
     Plant Loop Connector Nodes,   7,Mixer,HEATING DEMAND MIXER,HEATING DEMAND BYPASS OUTLET NODE,HW DEMAND EXIT PIPE INLET NODE,HOT WATER LOOP,Demand
 Plant Loop,HOT WATER LOOP,Supply,HW SUPPLY INLET NODE,HW SUPPLY OUTLET NODE,HEATING SUPPLY SIDE BRANCHES,HEATING SUPPLY SIDE CONNECTORS
   Plant Loop Connector,Splitter,HEATING SUPPLY SPLITTER,HOT WATER LOOP,Supply,2
     Plant Loop Connector Branches,1,Splitter,HEATING SUPPLY SPLITTER,HEATING SUPPLY INLET BRANCH,CENTRAL HPWH BRANCH,HOT WATER LOOP,Supply
     Plant Loop Connector Nodes,   1,Splitter,HEATING SUPPLY SPLITTER,HW PUMP OUTLET NODE,HPWH USE INLET NODE,HOT WATER LOOP,Supply
     Plant Loop Connector Branches,2,Splitter,HEATING SUPPLY SPLITTER,HEATING SUPPLY INLET BRANCH,HEATING SUPPLY BYPASS BRANCH,HOT WATER LOOP,Supply
     Plant Loop Connector Nodes,   2,Splitter,HEATING SUPPLY SPLITTER,HW PUMP OUTLET NODE,HEATING SUPPLY BYPASS INLET NODE,HOT WATER LOOP,Supply
   Plant Loop Connector,Mixer,HEATING SUPPLY MIXER,HOT WATER LOOP,Supply,2
     Plant Loop Connector Branches,1,Mixer,HEATING SUPPLY MIXER,CENTRAL HPWH BRANCH,HEATING SUPPLY OUTLET BRANCH,HOT WATER LOOP,Supply
     Plant Loop Connector Nodes,   1,Mixer,HEATING SUPPLY MIXER,HPWH USE OUTLET NODE,HEATING SUPPLY EXIT PIPE INLET NODE,HOT WATER LOOP,Supply
     Plant Loop Connector Branches,2,Mixer,HEATING SUPPLY MIXER,HEATING SUPPLY BYPASS BRANCH,HEATING SUPPLY OUTLET BRANCH,HOT WATER LOOP,Supply
     Plant Loop Connector Nodes,   2,Mixer,HEATING SUPPLY MIXER,HEATING SUPPLY BYPASS OUTLET NODE,HEATING SUPPLY EXIT PIPE INLET NODE,HOT WATER LOOP,Supply
 Plant Loop Supply Connection,HOT WATER LOOP,HW SUPPLY OUTLET NODE,HW DEMAND INLET NODE
 Plant Loop Return Connection,HOT WATER LOOP,HW DEMAND OUTLET NODE,HW SUPPLY INLET NODE
 Plant Loop,CHILLED WATER LOOP,Demand,CW DEMAND INLET NODE,CW DEMAND OUTLET NODE,COOLING DEMAND SIDE BRANCHES,COOLING DEMAND SIDE CONNECTORS
   Plant Loop Connector,Splitter,CW DEMAND SPLITTER,CHILLED WATER LOOP,Demand,2
     Plant Loop Connector Branches,1,Splitter,CW DEMAND SPLITTER,COOLING DEMAND INLET,COOLING COIL BRANCH,CHILLED WATER LOOP,Demand
     Plant Loop Connector Nodes,   1,Splitter,CW DEMAND SPLITTER,CW DEMAND ENTRANCE PIPE OUTLET NODE,MAIN COOLING COIL 1 WATER INLET NODE,CHILLED WATER LOOP,Demand
     Plant Loop Connector Branches,2,Splitter,CW DEMAND SPLITTER,COOLING DEMAND INLET,COOLING DEMAND BYPASS BRANCH,CHILLED WATER LOOP,Demand
     Plant Loop Connector Nodes,   2,Splitter,CW DEMAND SPLITTER,CW DEMAND ENTRANCE PIPE OUTLET NODE,CW DEMAND BYPASS INLET NODE,CHILLED WATER LOOP,Demand
   Plant Loop Connector,Mixer,CW DEMAND MIXER,CHILLED WATER LOOP,Demand,2
     Plant Loop Connector Branches,1,Mixer,CW DEMAND MIXER,COOLING COIL BRANCH,COOLING DEMAND OUTLET,CHILLED WATER LOOP,Demand
     Plant Loop Connector Nodes,   1,Mixer,CW DEMAND MIXER,MAIN COOLING COIL 1 WATER OUTLET NODE,CW DEMAND EXIT PIPE INLET NODE,CHILLED WATER LOOP,Demand
     Plant Loop Connector Branches,2,Mixer,CW DEMAND MIXER,COOLING DEMAND BYPASS BRANCH,COOLING DEMAND OUTLET,CHILLED WATER LOOP,Demand
     Plant Loop Connector Nodes,   2,Mixer,CW DEMAND MIXER,CW DEMAND BYPASS OUTLET NODE,CW DEMAND EXIT PIPE INLET NODE,CHILLED WATER LOOP,Demand
 Plant Loop,CHILLED WATER LOOP,Supply,CW SUPPLY INLET NODE,CW SUPPLY OUTLET NODE,COOLING SUPPLY SIDE BRANCHES,COOLING SUPPLY SIDE CONNECTORS
   Plant Loop Connector,Splitter,CW LOOP SPLITTER,CHILLED WATER LOOP,Supply,2
     Plant Loop Connector Branches,1,Splitter,CW LOOP SPLITTER,CW PUMP BRANCH,CENTRAL CHILLER BRANCH,CHILLED WATER LOOP,Supply
     Plant Loop Connector Nodes,   1,Splitter,CW LOOP SPLITTER,CW PUMP OUTLET NODE,CENTRAL CHILLER INLET NODE,CHILLED WATER LOOP,Supply
     Plant Loop Connector Branches,2,Splitter,CW LOOP SPLITTER,CW PUMP BRANCH,COOLING SUPPLY BYPASS BRANCH,CHILLED WATER LOOP,Supply
     Plant Loop Connector Nodes,   2,Splitter,CW LOOP SPLITTER,CW PUMP OUTLET NODE,CW SUPPLY BYPASS INLET NODE,CHILLED WATER LOOP,Supply
   Plant Loop Connector,Mixer,CW LOOP MIXER,CHILLED WATER LOOP,Supply,2
     Plant Loop Connector Branches,1,Mixer,CW LOOP MIXER,CENTRAL CHILLER BRANCH,COOLING SUPPLY OUTLET,CHILLED WATER LOOP,Supply
     Plant Loop Connector Nodes,   1,Mixer,CW LOOP MIXER,CENTRAL CHILLER OUTLET NODE,SUPPLY SIDE EXIT PIPE INLET NODE,CHILLED WATER LOOP,Supply
     Plant Loop Connector Branches,2,Mixer,CW LOOP MIXER,COOLING SUPPLY BYPASS BRANCH,COOLING SUPPLY OUTLET,CHILLED WATER LOOP,Supply
     Plant Loop Connector Nodes,   2,Mixer,CW LOOP MIXER,CW SUPPLY BYPASS OUTLET NODE,SUPPLY SIDE EXIT PIPE INLET NODE,CHILLED WATER LOOP,Supply
 Plant Loop Supply Connection,CHILLED WATER LOOP,CW SUPPLY OUTLET NODE,CW DEMAND INLET NODE
 Plant Loop Return Connection,CHILLED WATER LOOP,CW DEMAND OUTLET NODE,CW SUPPLY INLET NODE
 Plant Loop,DHW LOOP,Demand,DHW DEMAND INLET NODE,MAINS MAKEUP NODE,DHW DEMAND BRANCHES,DHW DEMAND CONNECTORS
   Plant Loop Connector,Splitter,DHW DEMAND SPLITTER,DHW LOOP,Demand,1
     Plant Loop Connector Branches,1,Splitter,DHW DEMAND SPLITTER,DHW DEMAND INLET BRANCH,WATER DEMAND BRANCH,DHW LOOP,Demand
     Plant Loop Connector Nodes,   1,Splitter,DHW DEMAND SPLITTER,DHW DEMAND INLET PIPE OUTLET NODE,WATER DEMAND INLET NODE,DHW LOOP,Demand
   Plant Loop Connector,Mixer,DHW DEMAND MIXER,DHW LOOP,Demand,1
     Plant Loop Connector Branches,1,Mixer,DHW DEMAND MIXER,WATER DEMAND BRANCH,MAINS MAKEUP BRANCH,DHW LOOP,Demand
     Plant Loop Connector Nodes,   1,Mixer,DHW DEMAND MIXER,WATER DEMAND OUTLET NODE,MAINS MAKEUP PIPE INLET NODE,DHW LOOP,Demand
 Plant Loop,DHW LOOP,Supply,MAINS INLET NODE,DHW SUPPLY OUTLET NODE,DHW SUPPLY BRANCHES,DHW SUPPLY CONNECTORS
   Plant Loop Connector,Splitter,DHW SUPPLY SPLITTER,DHW LOOP,Supply,1
     Plant Loop Connector Branches,1,Splitter,DHW SUPPLY SPLITTER,MAINS INLET BRANCH,WATER HEATER BRANCH,DHW LOOP,Supply
     Plant Loop Connector Nodes,   1,Splitter,DHW SUPPLY SPLITTER,MAINS PRESSURE OUTLET NODE,WATER HEATER USE INLET NODE,DHW LOOP,Supply
   Plant Loop Connector,Mixer,DHW SUPPLY MIXER,DHW LOOP,Supply,1
     Plant Loop Connector Branches,1,Mixer,DHW SUPPLY MIXER,WATER HEATER BRANCH,DHW SUPPLY OUTLET BRANCH,DHW LOOP,Supply
     Plant Loop Connector Nodes,   1,Mixer,DHW SUPPLY MIXER,WATER HEATER USE OUTLET NODE,DHW SUPPLY OUTLET PIPE INLET NODE,DHW LOOP,Supply
 Plant Loop Supply Connection,DHW LOOP,DHW SUPPLY OUTLET NODE,DHW DEMAND INLET NODE
 Plant Loop Return Connection,DHW LOOP,MAINS MAKEUP NODE,MAINS INLET NODE
! ===============================================================
! <# Condenser Loops>,<Number of Condenser Loops>
 #Condenser Loops,1
! <Condenser Loop>,<Condenser Loop Name>,<Loop Type>,<Inlet Node Name>,<Outlet Node Name>,<Branch List>,<Connector List>
! <Condenser Loop Connector>,<Connector Type>,<Connector Name>,<Loop Name>,<Loop Type>,<Number of Inlets/Outlets>
! <Condenser Loop Connector Branches>,<Connector Node Count>,<Connector Type>,<Connector Name>,<Inlet Branch>,<Outlet Branch>,<Loop Name>,<Loop Type>
! <Condenser Loop Connector Nodes>,<Connector Node Count>,<Connector Type>,<Connector Name>,<Inlet Node>,<Outlet Node>,<Loop Name>,<Loop Type>
! <Condenser Loop Supply Connection>,<Condenser Loop Name>,<Supply Side Outlet Node Name>,<Demand Side Inlet Node Name>
! <Condenser Loop Return Connection>,<Condenser Loop Name>,<Demand Side Outlet Node Name>,<Supply Side Inlet Node Name>
 Plant Loop,CONDENSER WATER LOOP,Demand,CONDENSER DEMAND INLET NODE,CONDENSER DEMAND OUTLET NODE,CONDENSER DEMAND SIDE BRANCHES,CONDENSER DEMAND SIDE CONNECTORS
   Plant Loop Connector,Splitter,CONDENSER DEMAND SPLITTER,CONDENSER WATER LOOP,Demand,2
     Plant Loop Connector Branches,1,Splitter,CONDENSER DEMAND SPLITTER,CONDENSER DEMAND INLET BRANCH,CENTRAL CHILLER CONDENSER BRANCH,CONDENSER WATER LOOP,Demand
     Plant Loop Connector Nodes,   1,Splitter,CONDENSER DEMAND SPLITTER,CONDENSER DEMAND ENTRANCE PIPE OUTLET NODE,CENTRAL CHILLER CONDENSER INLET NODE,CONDENSER WATER LOOP,Demand
     Plant Loop Connector Branches,2,Splitter,CONDENSER DEMAND SPLITTER,CONDENSER DEMAND INLET BRANCH,CONDENSER DEMAND BYPASS BRANCH,CONDENSER WATER LOOP,Demand
     Plant Loop Connector Nodes,   2,Splitter,CONDENSER DEMAND SPLITTER,CONDENSER DEMAND ENTRANCE PIPE OUTLET NODE,COND DEMAND BYPASS INLET NODE,CONDENSER WATER LOOP,Demand
   Plant Loop Connector,Mixer,CONDENSER DEMAND MIXER,CONDENSER WATER LOOP,Demand,2
     Plant Loop Connector Branches,1,Mixer,CONDENSER DEMAND MIXER,CENTRAL CHILLER CONDENSER BRANCH,CONDENSER DEMAND OUTLET BRANCH,CONDENSER WATER LOOP,Demand
     Plant Loop Connector Nodes,   1,Mixer,CONDENSER DEMAND MIXER,CENTRAL CHILLER CONDENSER OUTLET NODE,CONDENSER DEMAND EXIT PIPE INLET NODE,CONDENSER WATER LOOP,Demand
     Plant Loop Connector Branches,2,Mixer,CONDENSER DEMAND MIXER,CONDENSER DEMAND BYPASS BRANCH,CONDENSER DEMAND OUTLET BRANCH,CONDENSER WATER LOOP,Demand
     Plant Loop Connector Nodes,   2,Mixer,CONDENSER DEMAND MIXER,COND DEMAND BYPASS OUTLET NODE,CONDENSER DEMAND EXIT PIPE INLET NODE,CONDENSER WATER LOOP,Demand
 Plant Loop,CONDENSER WATER LOOP,Supply,CONDENSER SUPPLY INLET NODE,CONDENSER SUPPLY OUTLET NODE,CONDENSER SUPPLY SIDE BRANCHES,CONDENSER SUPPLY SIDE CONNECTORS
   Plant Loop Connector,Splitter,CONDENSER SUPPLY SPLITTER,CONDENSER WATER LOOP,Supply,2
     Plant Loop Connector Branches,1,Splitter,CONDENSER SUPPLY SPLITTER,CONDENSER SUPPLY INLET BRANCH,CONDENSER SUPPLY TOWER BRANCH,CONDENSER WATER LOOP,Supply
     Plant Loop Connector Nodes,   1,Splitter,CONDENSER SUPPLY SPLITTER,CONDENSER PUMP OUTLET NODE,CONDENSER TOWER INLET NODE,CONDENSER WATER LOOP,Supply
     Plant Loop Connector Branches,2,Splitter,CONDENSER SUPPLY SPLITTER,CONDENSER SUPPLY INLET BRANCH,CONDENSER SUPPLY BYPASS BRANCH,CONDENSER WATER LOOP,Supply
     Plant Loop Connector Nodes,   2,Splitter,CONDENSER SUPPLY SPLITTER,CONDENSER PUMP OUTLET NODE,COND SUPPLY BYPASS INLET NODE,CONDENSER WATER LOOP,Supply
   Plant Loop Connector,Mixer,CONDENSER SUPPLY MIXER,CONDENSER WATER LOOP,Supply,2
     Plant Loop Connector Branches,1,Mixer,CONDENSER SUPPLY MIXER,CONDENSER SUPPLY TOWER BRANCH,CONDENSER SUPPLY OUTLET BRANCH,CONDENSER WATER LOOP,Supply
     Plant Loop Connector Nodes,   1,Mixer,CONDENSER SUPPLY MIXER,CONDENSER TOWER OUTLET NODE,CONDENSER SUPPLY EXIT PIPE INLET NODE,CONDENSER WATER LOOP,Supply
     Plant Loop Connector Branches,2,Mixer,CONDENSER SUPPLY MIXER,CONDENSER SUPPLY BYPASS BRANCH,CONDENSER SUPPLY OUTLET BRANCH,CONDENSER WATER LOOP,Supply
     Plant Loop Connector Nodes,   2,Mixer,CONDENSER SUPPLY MIXER,COND SUPPLY BYPASS OUTLET NODE,CONDENSER SUPPLY EXIT PIPE INLET NODE,CONDENSER WATER LOOP,Supply
 Plant Loop Supply Connection,CONDENSER WATER LOOP,CONDENSER SUPPLY OUTLET NODE,CONDENSER DEMAND INLET NODE
 Plant Loop Return Connection,CONDENSER WATER LOOP,CONDENSER DEMAND OUTLET NODE,CONDENSER SUPPLY INLET NODE
! ===============================================================
! <# Controlled Zones>,<Number of Controlled Zones>
 #Controlled Zones,5
! <Controlled Zone>,<Controlled Zone Name>,<Equip List Name>,<Control List Name>,<Zone Node Name>,<# Inlet Nodes>,<# Exhaust Nodes>,<# Return Nodes>
! <Controlled Zone Inlet>,<Inlet Node Count>,<Controlled Zone Name>,<Supply Air Inlet Node Name>,<SD Sys:Cooling/Heating [DD:Cooling] Inlet Node Name>,<DD Sys:Heating Inlet Node Name>
! <Controlled Zone Exhaust>,<Exhaust Node Count>,<Controlled Zone Name>,<Exhaust Air Node Name>
 Controlled Zone,SPACE1-1,SPACE1-1 EQ,,SPACE1-1 NODE,1,0,1
   Controlled Zone Inlet,1,SPACE1-1,SPACE1-1 IN NODE,SPACE1-1 ATU IN NODE,N/A
   Controlled Zone Return,1,SPACE1-1,SPACE1-1 OUT NODE
 Controlled Zone,SPACE2-1,SPACE2-1 EQ,,SPACE2-1 NODE,1,0,1
   Controlled Zone Inlet,1,SPACE2-1,SPACE2-1 IN NODE,SPACE2-1 ATU IN NODE,N/A
   Controlled Zone Return,1,SPACE2-1,SPACE2-1 OUT NODE
 Controlled Zone,SPACE3-1,SPACE3-1 EQ,,SPACE3-1 NODE,1,0,1
   Controlled Zone Inlet,1,SPACE3-1,SPACE3-1 IN NODE,SPACE3-1 ATU IN NODE,N/A
   Controlled Zone Return,1,SPACE3-1,SPACE3-1 OUT NODE
 Controlled Zone,SPACE4-1,SPACE4-1 EQ,,SPACE4-1 NODE,3,2,1
   Controlled Zone Inlet,1,SPACE4-1,SPACE4-1 IN NODE,SPACE4-1 ATU IN NODE,N/A
   Controlled Zone Inlet,2,SPACE4-1,ZONE4AIRINLETNODE,Undefined,N/A
   Controlled Zone Inlet,3,SPACE4-1,ZONE4BAIRINLETNODE,Undefined,N/A
   Controlled Zone Exhaust,1,SPACE4-1,ZONE4AIROUTLETNODE
   Controlled Zone Exhaust,2,SPACE4-1,ZONE4BAIROUTLETNODE
   Controlled Zone Return,1,SPACE4-1,SPACE4-1 OUT NODE
 Controlled Zone,SPACE5-1,SPACE5-1 EQ,,SPACE5-1 NODE,2,1,1
   Controlled Zone Inlet,1,SPACE5-1,SPACE5-1 IN NODE,SPACE5-1 ATU IN NODE,N/A
   Controlled Zone Inlet,2,SPACE5-1,HPWHAIRINLETNODE,Undefined,N/A
   Controlled Zone Exhaust,1,SPACE5-1,HPWHAIROUTLETNODE
   Controlled Zone Return,1,SPACE5-1,SPACE5-1 OUT NODE
! ===============================================================
! <#Zone Equipment Lists>,<Number of Zone Equipment Lists>
 #Zone Equipment Lists,5
! <Zone Equipment List>,<Zone Equipment List Count>,<Zone Equipment List Name>,<Zone Name>,<Number of Components>
! <Zone Equipment Component>,<Component Count>,<Component Type>,<Component Name>,<Zone Name>,<Heating Priority>,<Cooling Priority>
 Zone Equipment List,2,SPACE1-1 EQ,SPACE1-1,1
   Zone Equipment Component,1,ZONEHVAC:AIRDISTRIBUTIONUNIT,SPACE1-1 ATU,SPACE1-1,1,1
 Zone Equipment List,3,SPACE2-1 EQ,SPACE2-1,1
   Zone Equipment Component,1,ZONEHVAC:AIRDISTRIBUTIONUNIT,SPACE2-1 ATU,SPACE2-1,1,1
 Zone Equipment List,4,SPACE3-1 EQ,SPACE3-1,1
   Zone Equipment Component,1,ZONEHVAC:AIRDISTRIBUTIONUNIT,SPACE3-1 ATU,SPACE3-1,1,1
 Zone Equipment List,5,SPACE4-1 EQ,SPACE4-1,3
   Zone Equipment Component,1,ZONEHVAC:AIRDISTRIBUTIONUNIT,SPACE4-1 ATU,SPACE4-1,3,3
   Zone Equipment Component,2,WATERHEATER:HEATPUMP:PUMPEDCONDENSER,ZONE4HEATPUMPWATERHEATER,SPACE4-1,1,1
   Zone Equipment Component,3,WATERHEATER:HEATPUMP:PUMPEDCONDENSER,ZONE4BHEATPUMPWATERHEATER,SPACE4-1,2,2
 Zone Equipment List,6,SPACE5-1 EQ,SPACE5-1,2
   Zone Equipment Component,1,WATERHEATER:HEATPUMP:PUMPEDCONDENSER,ZONE5HEATPUMPWATERHEATER,SPACE5-1,1,1
   Zone Equipment Component,2,ZONEHVAC:AIRDISTRIBUTIONUNIT,SPACE5-1 ATU,SPACE5-1,2,2
! ===============================================================
! <#AirLoopHVACs>,<Number of AirLoopHVACs>
 #AirLoopHVACs,1
! <AirLoopHVAC>,<Air Loop Name>,<# Return Nodes>,<# Supply Nodes>,<# Zones Cooled>,<# Zones Heated>,<Outdoor Air Used>
! <AirLoop Return Connections>,<Connection Count>,<AirLoopHVAC Name>,<Zn Eqp Return Node #>,<Zn Eqp Return Node Name>,<AirLoop Return Node #>,<Air Loop Return Node Name>
! <AirLoop Supply Connections>,<Connection Count>,<AirLoopHVAC Name>,<Zn Eqp Supply Node #>,<Zn Eqp Supply Node Name>,<AirLoop Supply Node #>,<Air Loop Supply Node Name>
! <Cooled Zone Info>,<Cooled Zone Count>,<Cooled Zone Name>,<Cooled Zone Inlet Node #>,<Cooled Zone Inlet Node Name>,<AirLoopHVAC Name>
! <Heated Zone Info>,<Heated Zone Count>,<Heated Zone Name>,<Heated Zone Inlet Node #>,<Heated Zone Inlet Node Name>,<AirLoopHVAC Name>
! <Outdoor Air Connections>,<OA Inlet Node #>,<OA Return Air Inlet Node Name>,<OA Outlet Node #>,<OA Mixed Air Outlet Node Name>,<AirLoopHVAC Name>
! <AirLoopHVAC Connector>,<Connector Type>,<Connector Name>,<Loop Name>,<Loop Type>,<Number of Inlets/Outlets>
! <AirLoopHVAC Connector Branches>,<Connector Node Count>,<Connector Type>,<Connector Name>,<Inlet Branch>,<Outlet Branch>,<Loop Name>,<Loop Type>
! <AirLoopHVAC Connector Nodes>,<Connector Node Count>,<Connector Type>,<Connector Name>,<Inlet Node>,<Outlet Node>,<Loop Name>,<Loop Type>
 AirLoopHVAC,VAV SYS 1,1,1,5,0,Yes
   AirLoop Return Connections,1,VAV SYS 1,102,PLENUM-1 OUT NODE,21,VAV SYS 1 INLET NODE
   AirLoop Supply Connections,1,VAV SYS 1,101,ZONE EQ IN NODE,18,VAV SYS 1 OUTLET NODE
   Cooled Zone Info,1,SPACE1-1,5,SPACE1-1 IN NODE,VAV SYS 1
   Cooled Zone Info,2,SPACE2-1,6,SPACE2-1 IN NODE,VAV SYS 1
   Cooled Zone Info,3,SPACE3-1,7,SPACE3-1 IN NODE,VAV SYS 1
   Cooled Zone Info,4,SPACE4-1,8,SPACE4-1 IN NODE,VAV SYS 1
   Cooled Zone Info,5,SPACE5-1,13,SPACE5-1 IN NODE,VAV SYS 1
   Outdoor Air Connections,21,VAV SYS 1 INLET NODE,22,MIXED AIR NODE 1,VAV SYS 1
! ===============================================================
! <#Parent Node Connections>,<Number of Parent Node Connections>
 #Parent Node Connections,139
! <Parent Node Connection>,<Node Name>,<Node ObjectType>,<Node ObjectName>,<Node ConnectionType>,<Node FluidStream>
 Parent Node Connection,VAV SYS 1 INLET NODE,BRANCH,VAV SYS 1 MAIN BRANCH,Inlet,1
 Parent Node Connection,MIXED AIR NODE 1,BRANCH,VAV SYS 1 MAIN BRANCH,Internal,1
 Parent Node Connection,MAIN COOLING COIL 1 OUTLET NODE,BRANCH,VAV SYS 1 MAIN BRANCH,Internal,1
 Parent Node Connection,MAIN HEATING COIL 1 OUTLET NODE,BRANCH,VAV SYS 1 MAIN BRANCH,Internal,1
 Parent Node Connection,VAV SYS 1 OUTLET NODE,BRANCH,VAV SYS 1 MAIN BRANCH,Outlet,1
 Parent Node Connection,HW SUPPLY INLET NODE,BRANCH,HEATING SUPPLY INLET BRANCH,Inlet,1
 Parent Node Connection,HW PUMP OUTLET NODE,BRANCH,HEATING SUPPLY INLET BRANCH,Outlet,1
 Parent Node Connection,HPWH USE INLET NODE,BRANCH,CENTRAL HPWH BRANCH,Inlet,1
 Parent Node Connection,HPWH USE OUTLET NODE,BRANCH,CENTRAL HPWH BRANCH,Outlet,1
 Parent Node Connection,HEATING SUPPLY BYPASS INLET NODE,BRANCH,HEATING SUPPLY BYPASS BRANCH,Inlet,1
 Parent Node Connection,HEATING SUPPLY BYPASS OUTLET NODE,BRANCH,HEATING SUPPLY BYPASS BRANCH,Outlet,1
 Parent Node Connection,HEATING SUPPLY EXIT PIPE INLET NODE,BRANCH,HEATING SUPPLY OUTLET BRANCH,Inlet,1
 Parent Node Connection,HW SUPPLY OUTLET NODE,BRANCH,HEATING SUPPLY OUTLET BRANCH,Outlet,1
 Parent Node Connection,HW DEMAND INLET NODE,BRANCH,HEATING DEMAND INLET BRANCH,Inlet,1
 Parent Node Connection,HW DEMAND ENTRANCE PIPE OUTLET NODE,BRANCH,HEATING DEMAND INLET BRANCH,Outlet,1
 Parent Node Connection,HW DEMAND EXIT PIPE INLET NODE,BRANCH,HEATING DEMAND OUTLET BRANCH,Inlet,1
 Parent Node Connection,HW DEMAND OUTLET NODE,BRANCH,HEATING DEMAND OUTLET BRANCH,Outlet,1
 Parent Node Connection,SPACE1-1 ZONE COIL WATER IN NODE,BRANCH,SPACE1-1 REHEAT BRANCH,Inlet,1
 Parent Node Connection,SPACE1-1 ZONE COIL WATER OUT NODE,BRANCH,SPACE1-1 REHEAT BRANCH,Outlet,1
 Parent Node Connection,SPACE2-1 ZONE COIL WATER IN NODE,BRANCH,SPACE2-1 REHEAT BRANCH,Inlet,1
 Parent Node Connection,SPACE2-1 ZONE COIL WATER OUT NODE,BRANCH,SPACE2-1 REHEAT BRANCH,Outlet,1
 Parent Node Connection,SPACE3-1 ZONE COIL WATER IN NODE,BRANCH,SPACE3-1 REHEAT BRANCH,Inlet,1
 Parent Node Connection,SPACE3-1 ZONE COIL WATER OUT NODE,BRANCH,SPACE3-1 REHEAT BRANCH,Outlet,1
 Parent Node Connection,SPACE4-1 ZONE COIL WATER IN NODE,BRANCH,SPACE4-1 REHEAT BRANCH,Inlet,1
 Parent Node Connection,SPACE4-1 ZONE COIL WATER OUT NODE,BRANCH,SPACE4-1 REHEAT BRANCH,Outlet,1
 Parent Node Connection,SPACE5-1 ZONE COIL WATER IN NODE,BRANCH,SPACE5-1 REHEAT BRANCH,Inlet,1
 Parent Node Connection,SPACE5-1 ZONE COIL WATER OUT NODE,BRANCH,SPACE5-1 REHEAT BRANCH,Outlet,1
 Parent Node Connection,MAIN HEATING COIL 1 WATER INLET NODE,BRANCH,MAIN HEATING COIL 1 BRANCH,Inlet,1
 Parent Node Connection,MAIN HEATING COIL 1 WATER OUTLET NODE,BRANCH,MAIN HEATING COIL 1 BRANCH,Outlet,1
 Parent Node Connection,HEATING DEMAND BYPASS INLET NODE,BRANCH,HEATING DEMAND BYPASS BRANCH,Inlet,1
 Parent Node Connection,HEATING DEMAND BYPASS OUTLET NODE,BRANCH,HEATING DEMAND BYPASS BRANCH,Outlet,1
 Parent Node Connection,CW DEMAND INLET NODE,BRANCH,COOLING DEMAND INLET,Inlet,1
 Parent Node Connection,CW DEMAND ENTRANCE PIPE OUTLET NODE,BRANCH,COOLING DEMAND INLET,Outlet,1
 Parent Node Connection,MAIN COOLING COIL 1 WATER INLET NODE,BRANCH,COOLING COIL BRANCH,Inlet,1
 Parent Node Connection,MAIN COOLING COIL 1 WATER OUTLET NODE,BRANCH,COOLING COIL BRANCH,Outlet,1
 Parent Node Connection,CW DEMAND BYPASS INLET NODE,BRANCH,COOLING DEMAND BYPASS BRANCH,Inlet,1
 Parent Node Connection,CW DEMAND BYPASS OUTLET NODE,BRANCH,COOLING DEMAND BYPASS BRANCH,Outlet,1
 Parent Node Connection,CW DEMAND EXIT PIPE INLET NODE,BRANCH,COOLING DEMAND OUTLET,Inlet,1
 Parent Node Connection,CW DEMAND OUTLET NODE,BRANCH,COOLING DEMAND OUTLET,Outlet,1
 Parent Node Connection,SUPPLY SIDE EXIT PIPE INLET NODE,BRANCH,COOLING SUPPLY OUTLET,Inlet,1
 Parent Node Connection,CW SUPPLY OUTLET NODE,BRANCH,COOLING SUPPLY OUTLET,Outlet,1
 Parent Node Connection,CW SUPPLY INLET NODE,BRANCH,CW PUMP BRANCH,Inlet,1
 Parent Node Connection,CW PUMP OUTLET NODE,BRANCH,CW PUMP BRANCH,Outlet,1
 Parent Node Connection,CENTRAL CHILLER INLET NODE,BRANCH,CENTRAL CHILLER BRANCH,Inlet,1
 Parent Node Connection,CENTRAL CHILLER OUTLET NODE,BRANCH,CENTRAL CHILLER BRANCH,Outlet,1
 Parent Node Connection,CW SUPPLY BYPASS INLET NODE,BRANCH,COOLING SUPPLY BYPASS BRANCH,Inlet,1
 Parent Node Connection,CW SUPPLY BYPASS OUTLET NODE,BRANCH,COOLING SUPPLY BYPASS BRANCH,Outlet,1
 Parent Node Connection,CONDENSER SUPPLY INLET NODE,BRANCH,CONDENSER SUPPLY INLET BRANCH,Inlet,1
 Parent Node Connection,CONDENSER PUMP OUTLET NODE,BRANCH,CONDENSER SUPPLY INLET BRANCH,Outlet,1
 Parent Node Connection,CONDENSER TOWER INLET NODE,BRANCH,CONDENSER SUPPLY TOWER BRANCH,Inlet,1
 Parent Node Connection,CONDENSER TOWER OUTLET NODE,BRANCH,CONDENSER SUPPLY TOWER BRANCH,Outlet,1
 Parent Node Connection,COND SUPPLY BYPASS INLET NODE,BRANCH,CONDENSER SUPPLY BYPASS BRANCH,Inlet,1
 Parent Node Connection,COND SUPPLY BYPASS OUTLET NODE,BRANCH,CONDENSER SUPPLY BYPASS BRANCH,Outlet,1
 Parent Node Connection,CONDENSER SUPPLY EXIT PIPE INLET NODE,BRANCH,CONDENSER SUPPLY OUTLET BRANCH,Inlet,1
 Parent Node Connection,CONDENSER SUPPLY OUTLET NODE,BRANCH,CONDENSER SUPPLY OUTLET BRANCH,Outlet,1
 Parent Node Connection,CONDENSER DEMAND INLET NODE,BRANCH,CONDENSER DEMAND INLET BRANCH,Inlet,1
 Parent Node Connection,CONDENSER DEMAND ENTRANCE PIPE OUTLET NODE,BRANCH,CONDENSER DEMAND INLET BRANCH,Outlet,1
 Parent Node Connection,CENTRAL CHILLER CONDENSER INLET NODE,BRANCH,CENTRAL CHILLER CONDENSER BRANCH,Inlet,1
 Parent Node Connection,CENTRAL CHILLER CONDENSER OUTLET NODE,BRANCH,CENTRAL CHILLER CONDENSER BRANCH,Outlet,1
 Parent Node Connection,COND DEMAND BYPASS INLET NODE,BRANCH,CONDENSER DEMAND BYPASS BRANCH,Inlet,1
 Parent Node Connection,COND DEMAND BYPASS OUTLET NODE,BRANCH,CONDENSER DEMAND BYPASS BRANCH,Outlet,1
 Parent Node Connection,CONDENSER DEMAND EXIT PIPE INLET NODE,BRANCH,CONDENSER DEMAND OUTLET BRANCH,Inlet,1
 Parent Node Connection,CONDENSER DEMAND OUTLET NODE,BRANCH,CONDENSER DEMAND OUTLET BRANCH,Outlet,1
 Parent Node Connection,WATER DEMAND INLET NODE,BRANCH,WATER DEMAND BRANCH,Inlet,1
 Parent Node Connection,WATER DEMAND OUTLET NODE,BRANCH,WATER DEMAND BRANCH,Outlet,1
 Parent Node Connection,DHW SUPPLY OUTLET PIPE INLET NODE,BRANCH,DHW SUPPLY OUTLET BRANCH,Inlet,1
 Parent Node Connection,DHW SUPPLY OUTLET NODE,BRANCH,DHW SUPPLY OUTLET BRANCH,Outlet,1
 Parent Node Connection,DHW DEMAND INLET NODE,BRANCH,DHW DEMAND INLET BRANCH,Inlet,1
 Parent Node Connection,DHW DEMAND INLET PIPE OUTLET NODE,BRANCH,DHW DEMAND INLET BRANCH,Outlet,1
 Parent Node Connection,MAINS MAKEUP PIPE INLET NODE,BRANCH,MAINS MAKEUP BRANCH,Inlet,1
 Parent Node Connection,MAINS MAKEUP NODE,BRANCH,MAINS MAKEUP BRANCH,Outlet,1
 Parent Node Connection,MAINS INLET NODE,BRANCH,MAINS INLET BRANCH,Inlet,1
 Parent Node Connection,MAINS PRESSURE OUTLET NODE,BRANCH,MAINS INLET BRANCH,Outlet,1
 Parent Node Connection,WATER HEATER USE INLET NODE,BRANCH,WATER HEATER BRANCH,Inlet,1
 Parent Node Connection,WATER HEATER USE OUTLET NODE,BRANCH,WATER HEATER BRANCH,Outlet,1
 Parent Node Connection,ZONE EQ IN NODE,AIRLOOPHVAC:SUPPLYPATH,ZONE SUPPLY AIR PATH 1,Inlet,1
 Parent Node Connection,PLENUM-1 OUT NODE,AIRLOOPHVAC:RETURNPATH,RETURNAIRPATH1,Outlet,1
 Parent Node Connection,HPWHWATERINLETNODE,WATERHEATER:HEATPUMP:PUMPEDCONDENSER,ZONE5HEATPUMPWATERHEATER,Inlet,2
 Parent Node Connection,HPWHWATEROUTLETNODE,WATERHEATER:HEATPUMP:PUMPEDCONDENSER,ZONE5HEATPUMPWATERHEATER,Outlet,2
 Parent Node Connection,HPWHOUTDOORAIRINLETNODE,WATERHEATER:HEATPUMP:PUMPEDCONDENSER,ZONE5HEATPUMPWATERHEATER,OutsideAirReference,1
 Parent Node Connection,HPWHEXHAUSTAIROUTLETNODE,WATERHEATER:HEATPUMP:PUMPEDCONDENSER,ZONE5HEATPUMPWATERHEATER,ReliefAir,1
 Parent Node Connection,ZONE4WATERINLETNODE,WATERHEATER:HEATPUMP:PUMPEDCONDENSER,ZONE4HEATPUMPWATERHEATER,Inlet,2
 Parent Node Connection,ZONE4WATEROUTLETNODE,WATERHEATER:HEATPUMP:PUMPEDCONDENSER,ZONE4HEATPUMPWATERHEATER,Outlet,2
 Parent Node Connection,ZONE4AIROUTLETNODE,WATERHEATER:HEATPUMP:PUMPEDCONDENSER,ZONE4HEATPUMPWATERHEATER,Inlet,1
 Parent Node Connection,ZONE4AIRINLETNODE,WATERHEATER:HEATPUMP:PUMPEDCONDENSER,ZONE4HEATPUMPWATERHEATER,Outlet,1
 Parent Node Connection,ZONE4BWATERINLETNODE,WATERHEATER:HEATPUMP:PUMPEDCONDENSER,ZONE4BHEATPUMPWATERHEATER,Inlet,2
 Parent Node Connection,ZONE4BWATEROUTLETNODE,WATERHEATER:HEATPUMP:PUMPEDCONDENSER,ZONE4BHEATPUMPWATERHEATER,Outlet,2
 Parent Node Connection,WATER HEATER USE INLET NODE,WATERHEATER:HEATPUMP:PUMPEDCONDENSER,ZONE4BHEATPUMPWATERHEATER,Inlet,1
 Parent Node Connection,WATER HEATER USE OUTLET NODE,WATERHEATER:HEATPUMP:PUMPEDCONDENSER,ZONE4BHEATPUMPWATERHEATER,Outlet,1
 Parent Node Connection,ZONE4BAIROUTLETNODE,WATERHEATER:HEATPUMP:PUMPEDCONDENSER,ZONE4BHEATPUMPWATERHEATER,Inlet,1
 Parent Node Connection,ZONE4BAIRINLETNODE,WATERHEATER:HEATPUMP:PUMPEDCONDENSER,ZONE4BHEATPUMPWATERHEATER,Outlet,1
 Parent Node Connection,HPOUTDOORWATERINLETNODE,WATERHEATER:HEATPUMP:PUMPEDCONDENSER,OUTDOORHEATPUMPWATERHEATER,Inlet,2
 Parent Node Connection,HPOUTDOORWATEROUTLETNODE,WATERHEATER:HEATPUMP:PUMPEDCONDENSER,OUTDOORHEATPUMPWATERHEATER,Outlet,2
 Parent Node Connection,HPOUTDOORAIRINLETNODE,WATERHEATER:HEATPUMP:PUMPEDCONDENSER,OUTDOORHEATPUMPWATERHEATER,OutsideAirReference,1
 Parent Node Connection,HPOUTDOORAIROUTLETNODE,WATERHEATER:HEATPUMP:PUMPEDCONDENSER,OUTDOORHEATPUMPWATERHEATER,ReliefAir,1
 Parent Node Connection,HPSCHEDULEDWATERINLETNODE,WATERHEATER:HEATPUMP:PUMPEDCONDENSER,SCHEDULEDHEATPUMPWATERHEATER,Inlet,2
 Parent Node Connection,HPSCHEDULEDWATEROUTLETNODE,WATERHEATER:HEATPUMP:PUMPEDCONDENSER,SCHEDULEDHEATPUMPWATERHEATER,Outlet,2
 Parent Node Connection,HPSCHEDULEDAIRINLETNODE,WATERHEATER:HEATPUMP:PUMPEDCONDENSER,SCHEDULEDHEATPUMPWATERHEATER,Outlet,1
 Parent Node Connection,HPSCHEDULEDAIROUTLETNODE,WATERHEATER:HEATPUMP:PUMPEDCONDENSER,SCHEDULEDHEATPUMPWATERHEATER,Outlet,1
 Parent Node Connection,HPPLANTWATERINLETNODE,WATERHEATER:HEATPUMP:PUMPEDCONDENSER,PLANTHEATPUMPWATERHEATER,Inlet,2
 Parent Node Connection,HPPLANTWATEROUTLETNODE,WATERHEATER:HEATPUMP:PUMPEDCONDENSER,PLANTHEATPUMPWATERHEATER,Outlet,2
 Parent Node Connection,HPWH USE INLET NODE,WATERHEATER:HEATPUMP:PUMPEDCONDENSER,PLANTHEATPUMPWATERHEATER,Inlet,1
 Parent Node Connection,HPWH USE OUTLET NODE,WATERHEATER:HEATPUMP:PUMPEDCONDENSER,PLANTHEATPUMPWATERHEATER,Outlet,1
 Parent Node Connection,HPPLANTAIRINLETNODE,WATERHEATER:HEATPUMP:PUMPEDCONDENSER,PLANTHEATPUMPWATERHEATER,OutsideAirReference,1
 Parent Node Connection,HPPLANTAIROUTLETNODE,WATERHEATER:HEATPUMP:PUMPEDCONDENSER,PLANTHEATPUMPWATERHEATER,ReliefAir,1
 Parent Node Connection,HW SUPPLY INLET NODE,PLANTLOOP,HOT WATER LOOP,Inlet,1
 Parent Node Connection,HW SUPPLY OUTLET NODE,PLANTLOOP,HOT WATER LOOP,Outlet,1
 Parent Node Connection,HW DEMAND INLET NODE,PLANTLOOP,HOT WATER LOOP,Inlet,1
 Parent Node Connection,HW DEMAND OUTLET NODE,PLANTLOOP,HOT WATER LOOP,Outlet,1
 Parent Node Connection,HW SUPPLY OUTLET NODE,PLANTLOOP,HOT WATER LOOP,Sensor,1
 Parent Node Connection,CW SUPPLY INLET NODE,PLANTLOOP,CHILLED WATER LOOP,Inlet,1
 Parent Node Connection,CW SUPPLY OUTLET NODE,PLANTLOOP,CHILLED WATER LOOP,Outlet,1
 Parent Node Connection,CW DEMAND INLET NODE,PLANTLOOP,CHILLED WATER LOOP,Inlet,1
 Parent Node Connection,CW DEMAND OUTLET NODE,PLANTLOOP,CHILLED WATER LOOP,Outlet,1
 Parent Node Connection,CW SUPPLY OUTLET NODE,PLANTLOOP,CHILLED WATER LOOP,Sensor,1
 Parent Node Connection,MAINS INLET NODE,PLANTLOOP,DHW LOOP,Inlet,1
 Parent Node Connection,DHW SUPPLY OUTLET NODE,PLANTLOOP,DHW LOOP,Outlet,1
 Parent Node Connection,DHW DEMAND INLET NODE,PLANTLOOP,DHW LOOP,Inlet,1
 Parent Node Connection,MAINS MAKEUP NODE,PLANTLOOP,DHW LOOP,Outlet,1
 Parent Node Connection,DHW SUPPLY OUTLET NODE,PLANTLOOP,DHW LOOP,Sensor,1
 Parent Node Connection,CONDENSER SUPPLY INLET NODE,CONDENSERLOOP,CONDENSER WATER LOOP,Inlet,1
 Parent Node Connection,CONDENSER SUPPLY OUTLET NODE,CONDENSERLOOP,CONDENSER WATER LOOP,Outlet,1
 Parent Node Connection,CONDENSER DEMAND INLET NODE,CONDENSERLOOP,CONDENSER WATER LOOP,Inlet,1
 Parent Node Connection,CONDENSER DEMAND OUTLET NODE,CONDENSERLOOP,CONDENSER WATER LOOP,Outlet,1
 Parent Node Connection,CONDENSER SUPPLY OUTLET NODE,CONDENSERLOOP,CONDENSER WATER LOOP,Sensor,1
 Parent Node Connection,SPACE1-1 IN NODE,ZONEHVAC:AIRDISTRIBUTIONUNIT,SPACE1-1 ATU,Outlet,1
 Parent Node Connection,SPACE2-1 IN NODE,ZONEHVAC:AIRDISTRIBUTIONUNIT,SPACE2-1 ATU,Outlet,1
 Parent Node Connection,SPACE3-1 IN NODE,ZONEHVAC:AIRDISTRIBUTIONUNIT,SPACE3-1 ATU,Outlet,1
 Parent Node Connection,SPACE4-1 IN NODE,ZONEHVAC:AIRDISTRIBUTIONUNIT,SPACE4-1 ATU,Outlet,1
 Parent Node Connection,SPACE5-1 IN NODE,ZONEHVAC:AIRDISTRIBUTIONUNIT,SPACE5-1 ATU,Outlet,1
 Parent Node Connection,SPACE1-1 IN NODE,AIRTERMINAL:SINGLEDUCT:VAV:REHEAT,SPACE1-1 VAV REHEAT,Outlet,1
 Parent Node Connection,SPACE2-1 IN NODE,AIRTERMINAL:SINGLEDUCT:VAV:REHEAT,SPACE2-1 VAV REHEAT,Outlet,1
 Parent Node Connection,SPACE3-1 IN NODE,AIRTERMINAL:SINGLEDUCT:VAV:REHEAT,SPACE3-1 VAV REHEAT,Outlet,1
 Parent Node Connection,SPACE4-1 IN NODE,AIRTERMINAL:SINGLEDUCT:VAV:REHEAT,SPACE4-1 VAV REHEAT,Outlet,1
 Parent Node Connection,SPACE5-1 IN NODE,AIRTERMINAL:SINGLEDUCT:VAV:REHEAT,SPACE5-1 VAV REHEAT,Outlet,1
 Parent Node Connection,VAV SYS 1 INLET NODE,AIRLOOPHVAC,VAV SYS 1,Inlet,1
 Parent Node Connection,PLENUM-1 OUT NODE,AIRLOOPHVAC,VAV SYS 1,Outlet,1
 Parent Node Connection,ZONE EQ IN NODE,AIRLOOPHVAC,VAV SYS 1,Inlet,1
 Parent Node Connection,VAV SYS 1 OUTLET NODE,AIRLOOPHVAC,VAV SYS 1,Outlet,1
! ===============================================================
! <#Non-Parent Node Connections>,<Number of Non-Parent Node Connections>
 #Non-Parent Node Connections,271
! <Non-Parent Node Connection>,<Node Name>,<Node ObjectType>,<Node ObjectName>,<Node ConnectionType>,<Node FluidStream>
 Non-Parent Node Connection,SPACE1-1 NODE,ZONEHVAC:EQUIPMENTCONNECTIONS,SPACE1-1,ZoneNode,1
 Non-Parent Node Connection,SPACE1-1 IN NODE,ZONEHVAC:EQUIPMENTCONNECTIONS,SPACE1-1,ZoneInlet,1
 Non-Parent Node Connection,SPACE1-1 OUT NODE,ZONEHVAC:EQUIPMENTCONNECTIONS,SPACE1-1,ZoneReturn,1
 Non-Parent Node Connection,SPACE2-1 NODE,ZONEHVAC:EQUIPMENTCONNECTIONS,SPACE2-1,ZoneNode,1
 Non-Parent Node Connection,SPACE2-1 IN NODE,ZONEHVAC:EQUIPMENTCONNECTIONS,SPACE2-1,ZoneInlet,1
 Non-Parent Node Connection,SPACE2-1 OUT NODE,ZONEHVAC:EQUIPMENTCONNECTIONS,SPACE2-1,ZoneReturn,1
 Non-Parent Node Connection,SPACE3-1 NODE,ZONEHVAC:EQUIPMENTCONNECTIONS,SPACE3-1,ZoneNode,1
 Non-Parent Node Connection,SPACE3-1 IN NODE,ZONEHVAC:EQUIPMENTCONNECTIONS,SPACE3-1,ZoneInlet,1
 Non-Parent Node Connection,SPACE3-1 OUT NODE,ZONEHVAC:EQUIPMENTCONNECTIONS,SPACE3-1,ZoneReturn,1
 Non-Parent Node Connection,SPACE4-1 NODE,ZONEHVAC:EQUIPMENTCONNECTIONS,SPACE4-1,ZoneNode,1
 Non-Parent Node Connection,SPACE4-1 IN NODE,ZONEHVAC:EQUIPMENTCONNECTIONS,SPACE4-1,ZoneInlet,1
 Non-Parent Node Connection,ZONE4AIRINLETNODE,ZONEHVAC:EQUIPMENTCONNECTIONS,SPACE4-1,ZoneInlet,1
 Non-Parent Node Connection,ZONE4BAIRINLETNODE,ZONEHVAC:EQUIPMENTCONNECTIONS,SPACE4-1,ZoneInlet,1
 Non-Parent Node Connection,ZONE4AIROUTLETNODE,ZONEHVAC:EQUIPMENTCONNECTIONS,SPACE4-1,ZoneExhaust,1
 Non-Parent Node Connection,ZONE4BAIROUTLETNODE,ZONEHVAC:EQUIPMENTCONNECTIONS,SPACE4-1,ZoneExhaust,1
 Non-Parent Node Connection,SPACE4-1 OUT NODE,ZONEHVAC:EQUIPMENTCONNECTIONS,SPACE4-1,ZoneReturn,1
 Non-Parent Node Connection,SPACE5-1 NODE,ZONEHVAC:EQUIPMENTCONNECTIONS,SPACE5-1,ZoneNode,1
 Non-Parent Node Connection,SPACE5-1 IN NODE,ZONEHVAC:EQUIPMENTCONNECTIONS,SPACE5-1,ZoneInlet,1
 Non-Parent Node Connection,HPWHAIRINLETNODE,ZONEHVAC:EQUIPMENTCONNECTIONS,SPACE5-1,ZoneInlet,1
 Non-Parent Node Connection,HPWHAIROUTLETNODE,ZONEHVAC:EQUIPMENTCONNECTIONS,SPACE5-1,ZoneExhaust,1
 Non-Parent Node Connection,SPACE5-1 OUT NODE,ZONEHVAC:EQUIPMENTCONNECTIONS,SPACE5-1,ZoneReturn,1
 Non-Parent Node Connection,HPWHINLETAIRMIXERNODE,COIL:WATERHEATING:AIRTOWATERHEATPUMP:PUMPED,HPWHDXCOIL,Inlet,1
 Non-Parent Node Connection,HPWHDXCOILAIROUTLETNODE,COIL:WATERHEATING:AIRTOWATERHEATPUMP:PUMPED,HPWHDXCOIL,Outlet,1
 Non-Parent Node Connection,OUTSIDE AIR INLET NODE 1,OUTDOORAIR:NODELIST,OutdoorAir:NodeList,OutdoorAir,1
 Non-Parent Node Connection,HPOUTDOORAIRINLETNODE,OUTDOORAIR:NODELIST,OutdoorAir:NodeList,OutdoorAir,2
 Non-Parent Node Connection,HPPLANTAIRINLETNODE,OUTDOORAIR:NODELIST,OutdoorAir:NodeList,OutdoorAir,3
 Non-Parent Node Connection,HPWHOUTDOORAIRINLETNODE,OUTDOORAIR:NODELIST,OutdoorAir:NodeList,OutdoorAir,4
 Non-Parent Node Connection,HPWHOUTDOORTANK OA NODE,OUTDOORAIR:NODE,OutdoorAir:Node,OutdoorAir,5
 Non-Parent Node Connection,HPWHPLANTTANK OA NODE,OUTDOORAIR:NODE,OutdoorAir:Node,OutdoorAir,6
 Non-Parent Node Connection,HPWHWATERINLETNODE,COIL:WATERHEATING:AIRTOWATERHEATPUMP:PUMPED,HPWHDXCOIL,Inlet,2
 Non-Parent Node Connection,HPWHWATEROUTLETNODE,COIL:WATERHEATING:AIRTOWATERHEATPUMP:PUMPED,HPWHDXCOIL,Outlet,2
 Non-Parent Node Connection,ZONE4AIROUTLETNODE,COIL:WATERHEATING:AIRTOWATERHEATPUMP:PUMPED,ZONE4HPWHDXCOIL,Inlet,1
 Non-Parent Node Connection,ZONE4DXCOILAIROUTLETNODE,COIL:WATERHEATING:AIRTOWATERHEATPUMP:PUMPED,ZONE4HPWHDXCOIL,Outlet,1
 Non-Parent Node Connection,ZONE4WATERINLETNODE,COIL:WATERHEATING:AIRTOWATERHEATPUMP:PUMPED,ZONE4HPWHDXCOIL,Inlet,2
 Non-Parent Node Connection,ZONE4WATEROUTLETNODE,COIL:WATERHEATING:AIRTOWATERHEATPUMP:PUMPED,ZONE4HPWHDXCOIL,Outlet,2
 Non-Parent Node Connection,ZONE4BAIROUTLETNODE,COIL:WATERHEATING:AIRTOWATERHEATPUMP:PUMPED,ZONE4BHPWHDXCOIL,Inlet,1
 Non-Parent Node Connection,ZONE4BDXCOILAIROUTLETNODE,COIL:WATERHEATING:AIRTOWATERHEATPUMP:PUMPED,ZONE4BHPWHDXCOIL,Outlet,1
 Non-Parent Node Connection,ZONE4BWATERINLETNODE,COIL:WATERHEATING:AIRTOWATERHEATPUMP:PUMPED,ZONE4BHPWHDXCOIL,Inlet,2
 Non-Parent Node Connection,ZONE4BWATEROUTLETNODE,COIL:WATERHEATING:AIRTOWATERHEATPUMP:PUMPED,ZONE4BHPWHDXCOIL,Outlet,2
 Non-Parent Node Connection,HPOUTDOORFANAIROUTLETNODE,COIL:WATERHEATING:AIRTOWATERHEATPUMP:PUMPED,HPWHOUTDOORDXCOIL,Inlet,1
 Non-Parent Node Connection,HPOUTDOORAIROUTLETNODE,COIL:WATERHEATING:AIRTOWATERHEATPUMP:PUMPED,HPWHOUTDOORDXCOIL,Outlet,1
 Non-Parent Node Connection,HPOUTDOORWATERINLETNODE,COIL:WATERHEATING:AIRTOWATERHEATPUMP:PUMPED,HPWHOUTDOORDXCOIL,Inlet,2
 Non-Parent Node Connection,HPOUTDOORWATEROUTLETNODE,COIL:WATERHEATING:AIRTOWATERHEATPUMP:PUMPED,HPWHOUTDOORDXCOIL,Outlet,2
 Non-Parent Node Connection,HPSCHEDULEDFANAIROUTLETNODE,COIL:WATERHEATING:AIRTOWATERHEATPUMP:PUMPED,HPWHSCHEDULEDDXCOIL,Inlet,1
 Non-Parent Node Connection,HPSCHEDULEDAIROUTLETNODE,COIL:WATERHEATING:AIRTOWATERHEATPUMP:PUMPED,HPWHSCHEDULEDDXCOIL,Outlet,1
 Non-Parent Node Connection,HPSCHEDULEDWATERINLETNODE,COIL:WATERHEATING:AIRTOWATERHEATPUMP:PUMPED,HPWHSCHEDULEDDXCOIL,Inlet,2
 Non-Parent Node Connection,HPSCHEDULEDWATEROUTLETNODE,COIL:WATERHEATING:AIRTOWATERHEATPUMP:PUMPED,HPWHSCHEDULEDDXCOIL,Outlet,2
 Non-Parent Node Connection,HPPLANTFANAIROUTLETNODE,COIL:WATERHEATING:AIRTOWATERHEATPUMP:PUMPED,HPWHPLANTDXCOIL,Inlet,1
 Non-Parent Node Connection,HPPLANTAIROUTLETNODE,COIL:WATERHEATING:AIRTOWATERHEATPUMP:PUMPED,HPWHPLANTDXCOIL,Outlet,1
 Non-Parent Node Connection,HPPLANTWATERINLETNODE,COIL:WATERHEATING:AIRTOWATERHEATPUMP:PUMPED,HPWHPLANTDXCOIL,Inlet,2
 Non-Parent Node Connection,HPPLANTWATEROUTLETNODE,COIL:WATERHEATING:AIRTOWATERHEATPUMP:PUMPED,HPWHPLANTDXCOIL,Outlet,2
 Non-Parent Node Connection,MAIN HEATING COIL 1 OUTLET NODE,FAN:VARIABLEVOLUME,SUPPLY FAN 1,Inlet,1
 Non-Parent Node Connection,VAV SYS 1 OUTLET NODE,FAN:VARIABLEVOLUME,SUPPLY FAN 1,Outlet,1
 Non-Parent Node Connection,HPWHDXCOILAIROUTLETNODE,FAN:ONOFF,HPWHFAN,Inlet,1
 Non-Parent Node Connection,HPWHOUTLETAIRSPLITTERNODE,FAN:ONOFF,HPWHFAN,Outlet,1
 Non-Parent Node Connection,ZONE4DXCOILAIROUTLETNODE,FAN:ONOFF,ZONE4HPWHFAN,Inlet,1
 Non-Parent Node Connection,ZONE4AIRINLETNODE,FAN:ONOFF,ZONE4HPWHFAN,Outlet,1
 Non-Parent Node Connection,ZONE4BDXCOILAIROUTLETNODE,FAN:ONOFF,ZONE4BHPWHFAN,Inlet,1
 Non-Parent Node Connection,ZONE4BAIRINLETNODE,FAN:ONOFF,ZONE4BHPWHFAN,Outlet,1
 Non-Parent Node Connection,HPOUTDOORAIRINLETNODE,FAN:ONOFF,HPWHOUTDOORFAN,Inlet,1
 Non-Parent Node Connection,HPOUTDOORFANAIROUTLETNODE,FAN:ONOFF,HPWHOUTDOORFAN,Outlet,1
 Non-Parent Node Connection,HPSCHEDULEDAIRINLETNODE,FAN:ONOFF,HPWHSCHEDULEDFAN,Inlet,1
 Non-Parent Node Connection,HPSCHEDULEDFANAIROUTLETNODE,FAN:ONOFF,HPWHSCHEDULEDFAN,Outlet,1
 Non-Parent Node Connection,HPPLANTAIRINLETNODE,FAN:ONOFF,HPWHPLANTFAN,Inlet,1
 Non-Parent Node Connection,HPPLANTFANAIROUTLETNODE,FAN:ONOFF,HPWHPLANTFAN,Outlet,1
 Non-Parent Node Connection,HPWHINLETAIRMIXERNODE,WATERHEATER:HEATPUMP:PUMPEDCONDENSER INLET AIR MIXER,ZONE5HEATPUMPWATERHEATER,Outlet,1
 Non-Parent Node Connection,HPWHOUTLETAIRSPLITTERNODE,WATERHEATER:HEATPUMP:PUMPEDCONDENSER-OUTLET AIR SPLITTER,ZONE5HEATPUMPWATERHEATER,Inlet,1
 Non-Parent Node Connection,HPWHAIROUTLETNODE,WATERHEATER:HEATPUMP:PUMPEDCONDENSER-INLET AIR MIXER,ZONE5HEATPUMPWATERHEATER,Inlet,1
 Non-Parent Node Connection,HPWHAIRINLETNODE,WATERHEATER:HEATPUMP:PUMPEDCONDENSER-OUTLET AIR SPLITTER,ZONE5HEATPUMPWATERHEATER,Outlet,1
 Non-Parent Node Connection,HPWHWATEROUTLETNODE,WATERHEATER:STRATIFIED,HPWHTANK,Inlet,2
 Non-Parent Node Connection,HPWHWATERINLETNODE,WATERHEATER:STRATIFIED,HPWHTANK,Outlet,2
 Non-Parent Node Connection,ZONE4WATEROUTLETNODE,WATERHEATER:STRATIFIED,ZONE4HPWHTANK,Inlet,2
 Non-Parent Node Connection,ZONE4WATERINLETNODE,WATERHEATER:STRATIFIED,ZONE4HPWHTANK,Outlet,2
 Non-Parent Node Connection,WATER HEATER USE INLET NODE,WATERHEATER:STRATIFIED,ZONE4BHPWHTANK,Inlet,1
 Non-Parent Node Connection,WATER HEATER USE OUTLET NODE,WATERHEATER:STRATIFIED,ZONE4BHPWHTANK,Outlet,1
 Non-Parent Node Connection,ZONE4BWATEROUTLETNODE,WATERHEATER:STRATIFIED,ZONE4BHPWHTANK,Inlet,2
 Non-Parent Node Connection,ZONE4BWATERINLETNODE,WATERHEATER:STRATIFIED,ZONE4BHPWHTANK,Outlet,2
 Non-Parent Node Connection,HPWHOUTDOORTANK OA NODE,WATERHEATER:STRATIFIED,HPWHOUTDOORTANK,Inlet,1
 Non-Parent Node Connection,HPOUTDOORWATEROUTLETNODE,WATERHEATER:STRATIFIED,HPWHOUTDOORTANK,Inlet,2
 Non-Parent Node Connection,HPOUTDOORWATERINLETNODE,WATERHEATER:STRATIFIED,HPWHOUTDOORTANK,Outlet,2
 Non-Parent Node Connection,HPSCHEDULEDWATEROUTLETNODE,WATERHEATER:STRATIFIED,HPWHSCHEDULEDTANK,Inlet,2
 Non-Parent Node Connection,HPSCHEDULEDWATERINLETNODE,WATERHEATER:STRATIFIED,HPWHSCHEDULEDTANK,Outlet,2
 Non-Parent Node Connection,HPWHPLANTTANK OA NODE,WATERHEATER:STRATIFIED,HPWHPLANTTANK,Inlet,1
 Non-Parent Node Connection,HPWH USE INLET NODE,WATERHEATER:STRATIFIED,HPWHPLANTTANK,Inlet,1
 Non-Parent Node Connection,HPWH USE OUTLET NODE,WATERHEATER:STRATIFIED,HPWHPLANTTANK,Outlet,1
 Non-Parent Node Connection,HPPLANTWATEROUTLETNODE,WATERHEATER:STRATIFIED,HPWHPLANTTANK,Inlet,2
 Non-Parent Node Connection,HPPLANTWATERINLETNODE,WATERHEATER:STRATIFIED,HPWHPLANTTANK,Outlet,2
 Non-Parent Node Connection,VAV SYS 1 OUTLET NODE,SETPOINTMANAGER:SCHEDULED,SUPPLY AIR TEMP MANAGER 1,Setpoint,1
 Non-Parent Node Connection,HW SUPPLY OUTLET NODE,SETPOINTMANAGER:SCHEDULED,HOT WATER LOOP SETPOINT MANAGER,Setpoint,1
 Non-Parent Node Connection,CW SUPPLY OUTLET NODE,SETPOINTMANAGER:SCHEDULED,CHILLED WATER LOOP SETPOINT MANAGER,Setpoint,1
 Non-Parent Node Connection,CENTRAL CHILLER OUTLET NODE,SETPOINTMANAGER:SCHEDULED,CENTRAL CHILLER SETPOINT MANAGER,Setpoint,1
 Non-Parent Node Connection,DHW SUPPLY OUTLET NODE,SETPOINTMANAGER:SCHEDULED,DHW LOOP SETPOINT MANAGER,Setpoint,1
 Non-Parent Node Connection,MAIN COOLING COIL 1 OUTLET NODE,SETPOINTMANAGER:SINGLEZONE:HUMIDITY:MAXIMUM,SPACE2-1 HUMIDISTAT MANAGER,Setpoint,1
 Non-Parent Node Connection,SPACE2-1 NODE,SETPOINTMANAGER:SINGLEZONE:HUMIDITY:MAXIMUM,SPACE2-1 HUMIDISTAT MANAGER,Sensor,1
 Non-Parent Node Connection,VAV SYS 1 OUTLET NODE,SETPOINTMANAGER:MIXEDAIR,MIXED AIR TEMP MANAGER 2,Sensor,1
 Non-Parent Node Connection,MAIN HEATING COIL 1 OUTLET NODE,SETPOINTMANAGER:MIXEDAIR,MIXED AIR TEMP MANAGER 2,Sensor,1
 Non-Parent Node Connection,MAIN COOLING COIL 1 OUTLET NODE,SETPOINTMANAGER:MIXEDAIR,MIXED AIR TEMP MANAGER 2,Setpoint,1
 Non-Parent Node Connection,MAIN HEATING COIL 1 OUTLET NODE,SETPOINTMANAGER:MIXEDAIR,MIXED AIR TEMP MANAGER 2,Setpoint,1
 Non-Parent Node Connection,VAV SYS 1 OUTLET NODE,SETPOINTMANAGER:MIXEDAIR,MIXED AIR TEMP MANAGER 1,Sensor,1
 Non-Parent Node Connection,MAIN HEATING COIL 1 OUTLET NODE,SETPOINTMANAGER:MIXEDAIR,MIXED AIR TEMP MANAGER 1,Sensor,1
 Non-Parent Node Connection,MIXED AIR NODE 1,SETPOINTMANAGER:MIXEDAIR,MIXED AIR TEMP MANAGER 1,Setpoint,1
 Non-Parent Node Connection,CONDENSER SUPPLY OUTLET NODE,SETPOINTMANAGER:FOLLOWOUTDOORAIRTEMPERATURE,MYCONDENSERCONTROL,Setpoint,1
 Non-Parent Node Connection,HEATING SUPPLY BYPASS INLET NODE,PIPE:ADIABATIC,HEATING SUPPLY SIDE BYPASS,Inlet,1
 Non-Parent Node Connection,HEATING SUPPLY BYPASS OUTLET NODE,PIPE:ADIABATIC,HEATING SUPPLY SIDE BYPASS,Outlet,1
 Non-Parent Node Connection,HEATING SUPPLY EXIT PIPE INLET NODE,PIPE:ADIABATIC,HEATING SUPPLY OUTLET,Inlet,1
 Non-Parent Node Connection,HW SUPPLY OUTLET NODE,PIPE:ADIABATIC,HEATING SUPPLY OUTLET,Outlet,1
 Non-Parent Node Connection,HW DEMAND INLET NODE,PIPE:ADIABATIC,HEATING DEMAND INLET PIPE,Inlet,1
 Non-Parent Node Connection,HW DEMAND ENTRANCE PIPE OUTLET NODE,PIPE:ADIABATIC,HEATING DEMAND INLET PIPE,Outlet,1
 Non-Parent Node Connection,HW DEMAND EXIT PIPE INLET NODE,PIPE:ADIABATIC,HEATING DEMAND OUTLET PIPE,Inlet,1
 Non-Parent Node Connection,HW DEMAND OUTLET NODE,PIPE:ADIABATIC,HEATING DEMAND OUTLET PIPE,Outlet,1
 Non-Parent Node Connection,HEATING DEMAND BYPASS INLET NODE,PIPE:ADIABATIC,HEATING DEMAND BYPASS,Inlet,1
 Non-Parent Node Connection,HEATING DEMAND BYPASS OUTLET NODE,PIPE:ADIABATIC,HEATING DEMAND BYPASS,Outlet,1
 Non-Parent Node Connection,CW DEMAND INLET NODE,PIPE:ADIABATIC,COOLING DEMAND SIDE INLET PIPE,Inlet,1
 Non-Parent Node Connection,CW DEMAND ENTRANCE PIPE OUTLET NODE,PIPE:ADIABATIC,COOLING DEMAND SIDE INLET PIPE,Outlet,1
 Non-Parent Node Connection,CW DEMAND BYPASS INLET NODE,PIPE:ADIABATIC,COOLING DEMAND SIDE BYPASS,Inlet,1
 Non-Parent Node Connection,CW DEMAND BYPASS OUTLET NODE,PIPE:ADIABATIC,COOLING DEMAND SIDE BYPASS,Outlet,1
 Non-Parent Node Connection,CW DEMAND EXIT PIPE INLET NODE,PIPE:ADIABATIC,CW DEMAND SIDE OUTLET PIPE,Inlet,1
 Non-Parent Node Connection,CW DEMAND OUTLET NODE,PIPE:ADIABATIC,CW DEMAND SIDE OUTLET PIPE,Outlet,1
 Non-Parent Node Connection,SUPPLY SIDE EXIT PIPE INLET NODE,PIPE:ADIABATIC,SUPPLY SIDE OUTLET PIPE,Inlet,1
 Non-Parent Node Connection,CW SUPPLY OUTLET NODE,PIPE:ADIABATIC,SUPPLY SIDE OUTLET PIPE,Outlet,1
 Non-Parent Node Connection,CW SUPPLY BYPASS INLET NODE,PIPE:ADIABATIC,SUPPLY SIDE BYPASS,Inlet,1
 Non-Parent Node Connection,CW SUPPLY BYPASS OUTLET NODE,PIPE:ADIABATIC,SUPPLY SIDE BYPASS,Outlet,1
 Non-Parent Node Connection,COND SUPPLY BYPASS INLET NODE,PIPE:ADIABATIC,CONDENSER SUPPLY SIDE BYPASS,Inlet,1
 Non-Parent Node Connection,COND SUPPLY BYPASS OUTLET NODE,PIPE:ADIABATIC,CONDENSER SUPPLY SIDE BYPASS,Outlet,1
 Non-Parent Node Connection,CONDENSER SUPPLY EXIT PIPE INLET NODE,PIPE:ADIABATIC,CONDENSER SUPPLY OUTLET,Inlet,1
 Non-Parent Node Connection,CONDENSER SUPPLY OUTLET NODE,PIPE:ADIABATIC,CONDENSER SUPPLY OUTLET,Outlet,1
 Non-Parent Node Connection,CONDENSER DEMAND INLET NODE,PIPE:ADIABATIC,CONDENSER DEMAND INLET PIPE,Inlet,1
 Non-Parent Node Connection,CONDENSER DEMAND ENTRANCE PIPE OUTLET NODE,PIPE:ADIABATIC,CONDENSER DEMAND INLET PIPE,Outlet,1
 Non-Parent Node Connection,COND DEMAND BYPASS INLET NODE,PIPE:ADIABATIC,CONDENSER DEMAND SIDE BYPASS,Inlet,1
 Non-Parent Node Connection,COND DEMAND BYPASS OUTLET NODE,PIPE:ADIABATIC,CONDENSER DEMAND SIDE BYPASS,Outlet,1
 Non-Parent Node Connection,CONDENSER DEMAND EXIT PIPE INLET NODE,PIPE:ADIABATIC,CONDENSER DEMAND OUTLET PIPE,Inlet,1
 Non-Parent Node Connection,CONDENSER DEMAND OUTLET NODE,PIPE:ADIABATIC,CONDENSER DEMAND OUTLET PIPE,Outlet,1
 Non-Parent Node Connection,DHW SUPPLY OUTLET PIPE INLET NODE,PIPE:ADIABATIC,DHW SUPPLY OUTLET PIPE,Inlet,1
 Non-Parent Node Connection,DHW SUPPLY OUTLET NODE,PIPE:ADIABATIC,DHW SUPPLY OUTLET PIPE,Outlet,1
 Non-Parent Node Connection,DHW DEMAND INLET NODE,PIPE:ADIABATIC,DHW DEMAND INLET PIPE,Inlet,1
 Non-Parent Node Connection,DHW DEMAND INLET PIPE OUTLET NODE,PIPE:ADIABATIC,DHW DEMAND INLET PIPE,Outlet,1
 Non-Parent Node Connection,MAINS MAKEUP PIPE INLET NODE,PIPE:ADIABATIC,MAINS MAKEUP PIPE,Inlet,1
 Non-Parent Node Connection,MAINS MAKEUP NODE,PIPE:ADIABATIC,MAINS MAKEUP PIPE,Outlet,1
 Non-Parent Node Connection,HW DEMAND ENTRANCE PIPE OUTLET NODE,CONNECTOR:SPLITTER,HEATING DEMAND SPLITTER,Inlet,1
 Non-Parent Node Connection,SPACE1-1 ZONE COIL WATER IN NODE,CONNECTOR:SPLITTER,HEATING DEMAND SPLITTER,Outlet,1
 Non-Parent Node Connection,SPACE2-1 ZONE COIL WATER IN NODE,CONNECTOR:SPLITTER,HEATING DEMAND SPLITTER,Outlet,1
 Non-Parent Node Connection,SPACE3-1 ZONE COIL WATER IN NODE,CONNECTOR:SPLITTER,HEATING DEMAND SPLITTER,Outlet,1
 Non-Parent Node Connection,SPACE4-1 ZONE COIL WATER IN NODE,CONNECTOR:SPLITTER,HEATING DEMAND SPLITTER,Outlet,1
 Non-Parent Node Connection,SPACE5-1 ZONE COIL WATER IN NODE,CONNECTOR:SPLITTER,HEATING DEMAND SPLITTER,Outlet,1
 Non-Parent Node Connection,MAIN HEATING COIL 1 WATER INLET NODE,CONNECTOR:SPLITTER,HEATING DEMAND SPLITTER,Outlet,1
 Non-Parent Node Connection,HEATING DEMAND BYPASS INLET NODE,CONNECTOR:SPLITTER,HEATING DEMAND SPLITTER,Outlet,1
 Non-Parent Node Connection,HW DEMAND EXIT PIPE INLET NODE,CONNECTOR:MIXER,HEATING DEMAND MIXER,Outlet,1
 Non-Parent Node Connection,SPACE1-1 ZONE COIL WATER OUT NODE,CONNECTOR:MIXER,HEATING DEMAND MIXER,Inlet,1
 Non-Parent Node Connection,SPACE2-1 ZONE COIL WATER OUT NODE,CONNECTOR:MIXER,HEATING DEMAND MIXER,Inlet,1
 Non-Parent Node Connection,SPACE3-1 ZONE COIL WATER OUT NODE,CONNECTOR:MIXER,HEATING DEMAND MIXER,Inlet,1
 Non-Parent Node Connection,SPACE4-1 ZONE COIL WATER OUT NODE,CONNECTOR:MIXER,HEATING DEMAND MIXER,Inlet,1
 Non-Parent Node Connection,SPACE5-1 ZONE COIL WATER OUT NODE,CONNECTOR:MIXER,HEATING DEMAND MIXER,Inlet,1
 Non-Parent Node Connection,MAIN HEATING COIL 1 WATER OUTLET NODE,CONNECTOR:MIXER,HEATING DEMAND MIXER,Inlet,1
 Non-Parent Node Connection,HEATING DEMAND BYPASS OUTLET NODE,CONNECTOR:MIXER,HEATING DEMAND MIXER,Inlet,1
 Non-Parent Node Connection,HW PUMP OUTLET NODE,CONNECTOR:SPLITTER,HEATING SUPPLY SPLITTER,Inlet,1
 Non-Parent Node Connection,HPWH USE INLET NODE,CONNECTOR:SPLITTER,HEATING SUPPLY SPLITTER,Outlet,1
 Non-Parent Node Connection,HEATING SUPPLY BYPASS INLET NODE,CONNECTOR:SPLITTER,HEATING SUPPLY SPLITTER,Outlet,1
 Non-Parent Node Connection,HEATING SUPPLY EXIT PIPE INLET NODE,CONNECTOR:MIXER,HEATING SUPPLY MIXER,Outlet,1
 Non-Parent Node Connection,HPWH USE OUTLET NODE,CONNECTOR:MIXER,HEATING SUPPLY MIXER,Inlet,1
 Non-Parent Node Connection,HEATING SUPPLY BYPASS OUTLET NODE,CONNECTOR:MIXER,HEATING SUPPLY MIXER,Inlet,1
 Non-Parent Node Connection,CW DEMAND ENTRANCE PIPE OUTLET NODE,CONNECTOR:SPLITTER,CW DEMAND SPLITTER,Inlet,1
 Non-Parent Node Connection,MAIN COOLING COIL 1 WATER INLET NODE,CONNECTOR:SPLITTER,CW DEMAND SPLITTER,Outlet,1
 Non-Parent Node Connection,CW DEMAND BYPASS INLET NODE,CONNECTOR:SPLITTER,CW DEMAND SPLITTER,Outlet,1
 Non-Parent Node Connection,CW DEMAND EXIT PIPE INLET NODE,CONNECTOR:MIXER,CW DEMAND MIXER,Outlet,1
 Non-Parent Node Connection,MAIN COOLING COIL 1 WATER OUTLET NODE,CONNECTOR:MIXER,CW DEMAND MIXER,Inlet,1
 Non-Parent Node Connection,CW DEMAND BYPASS OUTLET NODE,CONNECTOR:MIXER,CW DEMAND MIXER,Inlet,1
 Non-Parent Node Connection,CENTRAL CHILLER INLET NODE,CHILLER:ELECTRIC,CENTRAL CHILLER,Inlet,1
 Non-Parent Node Connection,CENTRAL CHILLER OUTLET NODE,CHILLER:ELECTRIC,CENTRAL CHILLER,Outlet,1
 Non-Parent Node Connection,CENTRAL CHILLER CONDENSER INLET NODE,CHILLER:ELECTRIC,CENTRAL CHILLER,Inlet,2
 Non-Parent Node Connection,CENTRAL CHILLER CONDENSER OUTLET NODE,CHILLER:ELECTRIC,CENTRAL CHILLER,Outlet,2
 Non-Parent Node Connection,CW PUMP OUTLET NODE,CONNECTOR:SPLITTER,CW LOOP SPLITTER,Inlet,1
 Non-Parent Node Connection,CENTRAL CHILLER INLET NODE,CONNECTOR:SPLITTER,CW LOOP SPLITTER,Outlet,1
 Non-Parent Node Connection,CW SUPPLY BYPASS INLET NODE,CONNECTOR:SPLITTER,CW LOOP SPLITTER,Outlet,1
 Non-Parent Node Connection,SUPPLY SIDE EXIT PIPE INLET NODE,CONNECTOR:MIXER,CW LOOP MIXER,Outlet,1
 Non-Parent Node Connection,CENTRAL CHILLER OUTLET NODE,CONNECTOR:MIXER,CW LOOP MIXER,Inlet,1
 Non-Parent Node Connection,CW SUPPLY BYPASS OUTLET NODE,CONNECTOR:MIXER,CW LOOP MIXER,Inlet,1
 Non-Parent Node Connection,WATER DEMAND INLET NODE,WATERUSE:CONNECTIONS,DOMESTIC HOT WATER,Inlet,1
 Non-Parent Node Connection,WATER DEMAND OUTLET NODE,WATERUSE:CONNECTIONS,DOMESTIC HOT WATER,Outlet,1
 Non-Parent Node Connection,DHW DEMAND INLET PIPE OUTLET NODE,CONNECTOR:SPLITTER,DHW DEMAND SPLITTER,Inlet,1
 Non-Parent Node Connection,WATER DEMAND INLET NODE,CONNECTOR:SPLITTER,DHW DEMAND SPLITTER,Outlet,1
 Non-Parent Node Connection,MAINS MAKEUP PIPE INLET NODE,CONNECTOR:MIXER,DHW DEMAND MIXER,Outlet,1
 Non-Parent Node Connection,WATER DEMAND OUTLET NODE,CONNECTOR:MIXER,DHW DEMAND MIXER,Inlet,1
 Non-Parent Node Connection,MAINS PRESSURE OUTLET NODE,CONNECTOR:SPLITTER,DHW SUPPLY SPLITTER,Inlet,1
 Non-Parent Node Connection,WATER HEATER USE INLET NODE,CONNECTOR:SPLITTER,DHW SUPPLY SPLITTER,Outlet,1
 Non-Parent Node Connection,DHW SUPPLY OUTLET PIPE INLET NODE,CONNECTOR:MIXER,DHW SUPPLY MIXER,Outlet,1
 Non-Parent Node Connection,WATER HEATER USE OUTLET NODE,CONNECTOR:MIXER,DHW SUPPLY MIXER,Inlet,1
 Non-Parent Node Connection,CONDENSER DEMAND ENTRANCE PIPE OUTLET NODE,CONNECTOR:SPLITTER,CONDENSER DEMAND SPLITTER,Inlet,1
 Non-Parent Node Connection,CENTRAL CHILLER CONDENSER INLET NODE,CONNECTOR:SPLITTER,CONDENSER DEMAND SPLITTER,Outlet,1
 Non-Parent Node Connection,COND DEMAND BYPASS INLET NODE,CONNECTOR:SPLITTER,CONDENSER DEMAND SPLITTER,Outlet,1
 Non-Parent Node Connection,CONDENSER DEMAND EXIT PIPE INLET NODE,CONNECTOR:MIXER,CONDENSER DEMAND MIXER,Outlet,1
 Non-Parent Node Connection,CENTRAL CHILLER CONDENSER OUTLET NODE,CONNECTOR:MIXER,CONDENSER DEMAND MIXER,Inlet,1
 Non-Parent Node Connection,COND DEMAND BYPASS OUTLET NODE,CONNECTOR:MIXER,CONDENSER DEMAND MIXER,Inlet,1
 Non-Parent Node Connection,CONDENSER TOWER INLET NODE,COOLINGTOWER:SINGLESPEED,CENTRAL TOWER,Inlet,1
 Non-Parent Node Connection,CONDENSER TOWER OUTLET NODE,COOLINGTOWER:SINGLESPEED,CENTRAL TOWER,Outlet,1
 Non-Parent Node Connection,CONDENSER PUMP OUTLET NODE,CONNECTOR:SPLITTER,CONDENSER SUPPLY SPLITTER,Inlet,1
 Non-Parent Node Connection,CONDENSER TOWER INLET NODE,CONNECTOR:SPLITTER,CONDENSER SUPPLY SPLITTER,Outlet,1
 Non-Parent Node Connection,COND SUPPLY BYPASS INLET NODE,CONNECTOR:SPLITTER,CONDENSER SUPPLY SPLITTER,Outlet,1
 Non-Parent Node Connection,CONDENSER SUPPLY EXIT PIPE INLET NODE,CONNECTOR:MIXER,CONDENSER SUPPLY MIXER,Outlet,1
 Non-Parent Node Connection,CONDENSER TOWER OUTLET NODE,CONNECTOR:MIXER,CONDENSER SUPPLY MIXER,Inlet,1
 Non-Parent Node Connection,COND SUPPLY BYPASS OUTLET NODE,CONNECTOR:MIXER,CONDENSER SUPPLY MIXER,Inlet,1
 Non-Parent Node Connection,ZONE EQ IN NODE,AIRLOOPHVAC:ZONESPLITTER,ZONE SUPPLY AIR SPLITTER 1,Inlet,1
 Non-Parent Node Connection,SPACE1-1 ATU IN NODE,AIRLOOPHVAC:ZONESPLITTER,ZONE SUPPLY AIR SPLITTER 1,Outlet,1
 Non-Parent Node Connection,SPACE2-1 ATU IN NODE,AIRLOOPHVAC:ZONESPLITTER,ZONE SUPPLY AIR SPLITTER 1,Outlet,1
 Non-Parent Node Connection,SPACE3-1 ATU IN NODE,AIRLOOPHVAC:ZONESPLITTER,ZONE SUPPLY AIR SPLITTER 1,Outlet,1
 Non-Parent Node Connection,SPACE4-1 ATU IN NODE,AIRLOOPHVAC:ZONESPLITTER,ZONE SUPPLY AIR SPLITTER 1,Outlet,1
 Non-Parent Node Connection,SPACE5-1 ATU IN NODE,AIRLOOPHVAC:ZONESPLITTER,ZONE SUPPLY AIR SPLITTER 1,Outlet,1
 Non-Parent Node Connection,SPACE1-1 ZONE COIL AIR IN NODE,AIRTERMINAL:SINGLEDUCT:VAV:REHEAT,SPACE1-1 VAV REHEAT,Outlet,1
 Non-Parent Node Connection,SPACE1-1 ATU IN NODE,AIRTERMINAL:SINGLEDUCT:VAV:REHEAT,SPACE1-1 VAV REHEAT,Inlet,1
 Non-Parent Node Connection,SPACE1-1 ZONE COIL WATER IN NODE,COIL:HEATING:WATER,SPACE1-1 ZONE COIL,Inlet,2
 Non-Parent Node Connection,SPACE1-1 ZONE COIL WATER OUT NODE,COIL:HEATING:WATER,SPACE1-1 ZONE COIL,Outlet,2
 Non-Parent Node Connection,SPACE1-1 ZONE COIL AIR IN NODE,COIL:HEATING:WATER,SPACE1-1 ZONE COIL,Inlet,1
 Non-Parent Node Connection,SPACE1-1 IN NODE,COIL:HEATING:WATER,SPACE1-1 ZONE COIL,Outlet,1
 Non-Parent Node Connection,SPACE2-1 ZONE COIL WATER IN NODE,COIL:HEATING:WATER,SPACE2-1 ZONE COIL,Inlet,2
 Non-Parent Node Connection,SPACE2-1 ZONE COIL WATER OUT NODE,COIL:HEATING:WATER,SPACE2-1 ZONE COIL,Outlet,2
 Non-Parent Node Connection,SPACE2-1 ZONE COIL AIR IN NODE,COIL:HEATING:WATER,SPACE2-1 ZONE COIL,Inlet,1
 Non-Parent Node Connection,SPACE2-1 IN NODE,COIL:HEATING:WATER,SPACE2-1 ZONE COIL,Outlet,1
 Non-Parent Node Connection,SPACE3-1 ZONE COIL WATER IN NODE,COIL:HEATING:WATER,SPACE3-1 ZONE COIL,Inlet,2
 Non-Parent Node Connection,SPACE3-1 ZONE COIL WATER OUT NODE,COIL:HEATING:WATER,SPACE3-1 ZONE COIL,Outlet,2
 Non-Parent Node Connection,SPACE3-1 ZONE COIL AIR IN NODE,COIL:HEATING:WATER,SPACE3-1 ZONE COIL,Inlet,1
 Non-Parent Node Connection,SPACE3-1 IN NODE,COIL:HEATING:WATER,SPACE3-1 ZONE COIL,Outlet,1
 Non-Parent Node Connection,SPACE4-1 ZONE COIL WATER IN NODE,COIL:HEATING:WATER,SPACE4-1 ZONE COIL,Inlet,2
 Non-Parent Node Connection,SPACE4-1 ZONE COIL WATER OUT NODE,COIL:HEATING:WATER,SPACE4-1 ZONE COIL,Outlet,2
 Non-Parent Node Connection,SPACE4-1 ZONE COIL AIR IN NODE,COIL:HEATING:WATER,SPACE4-1 ZONE COIL,Inlet,1
 Non-Parent Node Connection,SPACE4-1 IN NODE,COIL:HEATING:WATER,SPACE4-1 ZONE COIL,Outlet,1
 Non-Parent Node Connection,SPACE5-1 ZONE COIL WATER IN NODE,COIL:HEATING:WATER,SPACE5-1 ZONE COIL,Inlet,2
 Non-Parent Node Connection,SPACE5-1 ZONE COIL WATER OUT NODE,COIL:HEATING:WATER,SPACE5-1 ZONE COIL,Outlet,2
 Non-Parent Node Connection,SPACE5-1 ZONE COIL AIR IN NODE,COIL:HEATING:WATER,SPACE5-1 ZONE COIL,Inlet,1
 Non-Parent Node Connection,SPACE5-1 IN NODE,COIL:HEATING:WATER,SPACE5-1 ZONE COIL,Outlet,1
 Non-Parent Node Connection,MAIN HEATING COIL 1 WATER INLET NODE,COIL:HEATING:WATER,MAIN HEATING COIL 1,Inlet,2
 Non-Parent Node Connection,MAIN HEATING COIL 1 WATER OUTLET NODE,COIL:HEATING:WATER,MAIN HEATING COIL 1,Outlet,2
 Non-Parent Node Connection,MAIN COOLING COIL 1 OUTLET NODE,COIL:HEATING:WATER,MAIN HEATING COIL 1,Inlet,1
 Non-Parent Node Connection,MAIN HEATING COIL 1 OUTLET NODE,COIL:HEATING:WATER,MAIN HEATING COIL 1,Outlet,1
 Non-Parent Node Connection,MAIN COOLING COIL 1 WATER INLET NODE,COIL:COOLING:WATER,MAIN COOLING COIL 1,Inlet,2
 Non-Parent Node Connection,MAIN COOLING COIL 1 WATER OUTLET NODE,COIL:COOLING:WATER,MAIN COOLING COIL 1,Outlet,2
 Non-Parent Node Connection,MIXED AIR NODE 1,COIL:COOLING:WATER,MAIN COOLING COIL 1,Inlet,1
 Non-Parent Node Connection,MAIN COOLING COIL 1 OUTLET NODE,COIL:COOLING:WATER,MAIN COOLING COIL 1,Outlet,1
 Non-Parent Node Connection,SPACE2-1 ZONE COIL AIR IN NODE,AIRTERMINAL:SINGLEDUCT:VAV:REHEAT,SPACE2-1 VAV REHEAT,Outlet,1
 Non-Parent Node Connection,SPACE2-1 ATU IN NODE,AIRTERMINAL:SINGLEDUCT:VAV:REHEAT,SPACE2-1 VAV REHEAT,Inlet,1
 Non-Parent Node Connection,SPACE3-1 ZONE COIL AIR IN NODE,AIRTERMINAL:SINGLEDUCT:VAV:REHEAT,SPACE3-1 VAV REHEAT,Outlet,1
 Non-Parent Node Connection,SPACE3-1 ATU IN NODE,AIRTERMINAL:SINGLEDUCT:VAV:REHEAT,SPACE3-1 VAV REHEAT,Inlet,1
 Non-Parent Node Connection,SPACE4-1 ZONE COIL AIR IN NODE,AIRTERMINAL:SINGLEDUCT:VAV:REHEAT,SPACE4-1 VAV REHEAT,Outlet,1
 Non-Parent Node Connection,SPACE4-1 ATU IN NODE,AIRTERMINAL:SINGLEDUCT:VAV:REHEAT,SPACE4-1 VAV REHEAT,Inlet,1
 Non-Parent Node Connection,SPACE5-1 ZONE COIL AIR IN NODE,AIRTERMINAL:SINGLEDUCT:VAV:REHEAT,SPACE5-1 VAV REHEAT,Outlet,1
 Non-Parent Node Connection,SPACE5-1 ATU IN NODE,AIRTERMINAL:SINGLEDUCT:VAV:REHEAT,SPACE5-1 VAV REHEAT,Inlet,1
 Non-Parent Node Connection,MAIN COOLING COIL 1 OUTLET NODE,CONTROLLER:WATERCOIL,CENTRAL COOLING COIL CONTOLLER 1,Sensor,1
 Non-Parent Node Connection,MAIN COOLING COIL 1 WATER INLET NODE,CONTROLLER:WATERCOIL,CENTRAL COOLING COIL CONTOLLER 1,Actuator,1
 Non-Parent Node Connection,MAIN HEATING COIL 1 OUTLET NODE,CONTROLLER:WATERCOIL,CENTRAL HEATING COIL CONTOLLER 1,Sensor,1
 Non-Parent Node Connection,MAIN HEATING COIL 1 WATER INLET NODE,CONTROLLER:WATERCOIL,CENTRAL HEATING COIL CONTOLLER 1,Actuator,1
 Non-Parent Node Connection,PLENUM-1 NODE,AIRLOOPHVAC:RETURNPLENUM,RETURN-PLENUM-1,ZoneNode,1
 Non-Parent Node Connection,PLENUM-1 OUT NODE,AIRLOOPHVAC:RETURNPLENUM,RETURN-PLENUM-1,Outlet,1
 Non-Parent Node Connection,SPACE1-1 OUT NODE,AIRLOOPHVAC:RETURNPLENUM,RETURN-PLENUM-1,Inlet,1
 Non-Parent Node Connection,SPACE2-1 OUT NODE,AIRLOOPHVAC:RETURNPLENUM,RETURN-PLENUM-1,Inlet,1
 Non-Parent Node Connection,SPACE3-1 OUT NODE,AIRLOOPHVAC:RETURNPLENUM,RETURN-PLENUM-1,Inlet,1
 Non-Parent Node Connection,SPACE4-1 OUT NODE,AIRLOOPHVAC:RETURNPLENUM,RETURN-PLENUM-1,Inlet,1
 Non-Parent Node Connection,SPACE5-1 OUT NODE,AIRLOOPHVAC:RETURNPLENUM,RETURN-PLENUM-1,Inlet,1
 Non-Parent Node Connection,MIXED AIR NODE 1,OUTDOORAIR:MIXER,OA MIXING BOX 1,Outlet,1
 Non-Parent Node Connection,OUTSIDE AIR INLET NODE 1,OUTDOORAIR:MIXER,OA MIXING BOX 1,Inlet,1
 Non-Parent Node Connection,RELIEF AIR OUTLET NODE 1,OUTDOORAIR:MIXER,OA MIXING BOX 1,ReliefAir,1
 Non-Parent Node Connection,VAV SYS 1 INLET NODE,OUTDOORAIR:MIXER,OA MIXING BOX 1,Inlet,1
 Non-Parent Node Connection,MIXED AIR NODE 1,CONTROLLER:OUTDOORAIR,OA CONTROLLER 1,Sensor,1
 Non-Parent Node Connection,OUTSIDE AIR INLET NODE 1,CONTROLLER:OUTDOORAIR,OA CONTROLLER 1,Actuator,1
 Non-Parent Node Connection,RELIEF AIR OUTLET NODE 1,CONTROLLER:OUTDOORAIR,OA CONTROLLER 1,Actuator,1
 Non-Parent Node Connection,VAV SYS 1 INLET NODE,CONTROLLER:OUTDOORAIR,OA CONTROLLER 1,Sensor,1
 Non-Parent Node Connection,HW SUPPLY INLET NODE,PUMP:VARIABLESPEED,HW CIRC PUMP,Inlet,1
 Non-Parent Node Connection,HW PUMP OUTLET NODE,PUMP:VARIABLESPEED,HW CIRC PUMP,Outlet,1
 Non-Parent Node Connection,CW SUPPLY INLET NODE,PUMP:VARIABLESPEED,CW CIRC PUMP,Inlet,1
 Non-Parent Node Connection,CW PUMP OUTLET NODE,PUMP:VARIABLESPEED,CW CIRC PUMP,Outlet,1
 Non-Parent Node Connection,CONDENSER SUPPLY INLET NODE,PUMP:VARIABLESPEED,COND CIRC PUMP,Inlet,1
 Non-Parent Node Connection,CONDENSER PUMP OUTLET NODE,PUMP:VARIABLESPEED,COND CIRC PUMP,Outlet,1
 Non-Parent Node Connection,MAINS INLET NODE,PUMP:VARIABLESPEED,MAINS PRESSURE,Inlet,1
 Non-Parent Node Connection,MAINS PRESSURE OUTLET NODE,PUMP:VARIABLESPEED,MAINS PRESSURE,Outlet,1
