Program Version,EnergyPlus, Version 9.6.0-f420c06a69, YMD=2024.09.02 12:50
! <Version>, Version ID
 Version, 9.6
! <Timesteps per Hour>, #TimeSteps, Minutes per TimeStep {minutes}
 Timesteps per Hour,  4, 15
! <System Convergence Limits>, Minimum System TimeStep {minutes}, Max HVAC Iterations, Minimum Plant Iterations, Maximum Plant Iterations
 System Convergence Limits, 1, 20, 4, 10
! <Simulation Control>, Do Zone Sizing, Do System Sizing, Do Plant Sizing, Do Design Days, Do Weather Simulation, Do HVAC Sizing Simulation
 Simulation Control, Yes, Yes, No, Yes, Yes, No
! <Performance Precision Tradeoffs>, Use Coil Direct Simulation, Zone Radiant Exchange Algorithm, Override Mode, Number of Timestep In Hour, Force Euler Method, Minimum Number of Warmup Days, Force Suppress All Begin Environment Resets, Minimum System Timestep, MaxZoneTempDiff, MaxAllowedDelTemp
 Performance Precision Tradeoffs, No, ScriptF, Normal, 4, No, 1, No, 1.0, 0.300, 2.0000E-003
! <Output Reporting Tolerances>, Tolerance for Time Heating Setpoint Not Met, Tolerance for Zone Cooling Setpoint Not Met Time
 Output Reporting Tolerances, 0.200, 0.200, 
! <Site:GroundTemperature:BuildingSurface>,Jan{C},Feb{C},Mar{C},Apr{C},May{C},Jun{C},Jul{C},Aug{C},Sep{C},Oct{C},Nov{C},Dec{C}
 Site:GroundTemperature:BuildingSurface,  20.03,  20.03,  20.13,  20.30,  20.43,  20.52,  20.62,  20.77,  20.78,  20.55,  20.44,  20.20
! <Site:GroundTemperature:FCfactorMethod>,Jan{C},Feb{C},Mar{C},Apr{C},May{C},Jun{C},Jul{C},Aug{C},Sep{C},Oct{C},Nov{C},Dec{C}
 Site:GroundTemperature:FCfactorMethod,  22.26,  20.91,  20.55,  20.86,  22.68,  24.72,  26.64,  28.02,  28.43,  27.78,  26.21,  24.23
! <Site:GroundTemperature:Shallow>,Jan{C},Feb{C},Mar{C},Apr{C},May{C},Jun{C},Jul{C},Aug{C},Sep{C},Oct{C},Nov{C},Dec{C}
 Site:GroundTemperature:Shallow,  13.00,  13.00,  13.00,  13.00,  13.00,  13.00,  13.00,  13.00,  13.00,  13.00,  13.00,  13.00
! <Site:GroundTemperature:Deep>,Jan{C},Feb{C},Mar{C},Apr{C},May{C},Jun{C},Jul{C},Aug{C},Sep{C},Oct{C},Nov{C},Dec{C}
 Site:GroundTemperature:Deep,  16.00,  16.00,  16.00,  16.00,  16.00,  16.00,  16.00,  16.00,  16.00,  16.00,  16.00,  16.00
! <Site:GroundReflectance>,Jan{dimensionless},Feb{dimensionless},Mar{dimensionless},Apr{dimensionless},May{dimensionless},Jun{dimensionless},Jul{dimensionless},Aug{dimensionless},Sep{dimensionless},Oct{dimensionless},Nov{dimensionless},Dec{dimensionless}
 Site:GroundReflectance,  0.20,  0.20,  0.20,  0.20,  0.20,  0.20,  0.20,  0.20,  0.20,  0.20,  0.20,  0.20
! <Site:GroundReflectance:SnowModifier>, Normal, Daylighting {dimensionless}
 Site:GroundReflectance:SnowModifier,   1.000,   1.000
! <Site:GroundReflectance:Snow>,Jan{dimensionless},Feb{dimensionless},Mar{dimensionless},Apr{dimensionless},May{dimensionless},Jun{dimensionless},Jul{dimensionless},Aug{dimensionless},Sep{dimensionless},Oct{dimensionless},Nov{dimensionless},Dec{dimensionless}
 Site:GroundReflectance:Snow,  0.20,  0.20,  0.20,  0.20,  0.20,  0.20,  0.20,  0.20,  0.20,  0.20,  0.20,  0.20
! <Site:GroundReflectance:Snow:Daylighting>,Jan{dimensionless},Feb{dimensionless},Mar{dimensionless},Apr{dimensionless},May{dimensionless},Jun{dimensionless},Jul{dimensionless},Aug{dimensionless},Sep{dimensionless},Oct{dimensionless},Nov{dimensionless},Dec{dimensionless}
 Site:GroundReflectance:Snow:Daylighting,  0.20,  0.20,  0.20,  0.20,  0.20,  0.20,  0.20,  0.20,  0.20,  0.20,  0.20,  0.20
! <Environment:Weather Station>,Wind Sensor Height Above Ground {m},Wind Speed Profile Exponent {},Wind Speed Profile Boundary Layer Thickness {m},Air Temperature Sensor Height Above Ground {m},Wind Speed Modifier Coefficient-Internal,Temperature Modifier Coefficient-Internal
Environment:Weather Station,10.000,0.140,270.000,1.500,1.586,9.750E-003
! <Site:Location>, Location Name, Latitude {N+/S- Deg}, Longitude {E+/W- Deg},  Time Zone Number {GMT+/-}, Elevation {m},  Standard Pressure at Elevation {Pa}, Standard RhoAir at Elevation
Site:Location,Miami Intl Ap FL USA TMY3 WMO#=722020,25.82,-80.30,-5.00,11.00,101193,1.2027
! <Site Water Mains Temperature Information>,Calculation Method{},Water Mains Temperature Schedule Name{},Annual Average Outdoor Air Temperature{C},Maximum Difference In Monthly Average Outdoor Air Temperatures{deltaC},Fixed Default Water Mains Temperature{C}
Site Water Mains Temperature Information,Correlation,NA,9.69,28.10,NA
! <Building Information>, Building Name,North Axis {deg},Terrain,  Loads Convergence Tolerance Value,Temperature Convergence Tolerance Value,  Solar Distribution,Maximum Number of Warmup Days,Minimum Number of Warmup Days
 Building Information,Building,30.000,City,4.00000E-002,0.40000,FullExterior,25,6
! <Inside Convection Algorithm>, Algorithm {Simple | TARP | CeilingDiffuser | AdaptiveConvectionAlgorithm}
Inside Convection Algorithm,Simple
! <Outside Convection Algorithm>, Algorithm {SimpleCombined | TARP | MoWitt | DOE-2 | AdaptiveConvectionAlgorithm}
Outside Convection Algorithm,SimpleCombined
! <Sky Radiance Distribution>, Value {Anisotropic}
Sky Radiance Distribution,Anisotropic
! <Zone Air Solution Algorithm>, Value {ThirdOrderBackwardDifference | AnalyticalSolution | EulerMethod}
 Zone Air Solution Algorithm, ThirdOrderBackwardDifference
! <Zone Air Carbon Dioxide Balance Simulation>, Simulation {Yes/No}, Carbon Dioxide Concentration
 Zone Air Carbon Dioxide Balance Simulation, No,N/A
! <Zone Air Generic Contaminant Balance Simulation>, Simulation {Yes/No}, Generic Contaminant Concentration
 Zone Air Generic Contaminant Balance Simulation, No,N/A
! <Zone Air Mass Flow Balance Simulation>, Enforce Mass Balance, Adjust Zone Mixing and Return {AdjustMixingOnly | AdjustReturnOnly | AdjustMixingThenReturn | AdjustReturnThenMixing | None}, Adjust Zone Infiltration {AddInfiltration | AdjustInfiltration | None}, Infiltration Zones {MixingSourceZonesOnly | AllZones}
 Zone Air Mass Flow Balance Simulation, No,N/A,N/A,N/A
! <HVACSystemRootFindingAlgorithm>, Value {RegulaFalsi | Bisection | BisectionThenRegulaFalsi | RegulaFalsiThenBisection}
 HVACSystemRootFindingAlgorithm, RegulaFalsi
! <Environment:Site Atmospheric Variation>,Wind Speed Profile Exponent {},Wind Speed Profile Boundary Layer Thickness {m},Air Temperature Gradient Coefficient {K/m}
Environment:Site Atmospheric Variation,0.330,460.000,6.500000E-003
! <Surface Geometry>,Starting Corner,Vertex Input Direction,Coordinate System,Daylight Reference Point Coordinate System,Rectangular (Simple) Surface Coordinate System
 Surface Geometry,UpperLeftCorner,Counterclockwise,RelativeCoordinateSystem,RelativeCoordinateSystem,RelativeToZoneOrigin
! <Surface Heat Transfer Algorithm>, Value {CTF - ConductionTransferFunction | EMPD - MoisturePenetrationDepthConductionTransferFunction | CondFD - ConductionFiniteDifference | HAMT - CombinedHeatAndMoistureFiniteElement} - Description,Inside Surface Max Temperature Limit{C}, Surface Convection Coefficient Lower Limit {W/m2-K}, Surface Convection Coefficient Upper Limit {W/m2-K}
Surface Heat Transfer Algorithm, CTF - ConductionTransferFunction,200,0.10,1000.0
! <Shading Summary>, Number of Fixed Detached Shades, Number of Building Detached Shades, Number of Attached Shades
 Shading Summary,0,0,4
! <Zone Summary>, Number of Zones, Number of Zone Surfaces, Number of SubSurfaces
 Zone Summary,6,46,6
! <Zone Information>,Zone Name,North Axis {deg},Origin X-Coordinate {m},Origin Y-Coordinate {m},Origin Z-Coordinate {m},Centroid X-Coordinate {m},Centroid Y-Coordinate {m},Centroid Z-Coordinate {m},Type,Zone Multiplier,Zone List Multiplier,Minimum X {m},Maximum X {m},Minimum Y {m},Maximum Y {m},Minimum Z {m},Maximum Z {m},Ceiling Height {m},Volume {m3},Zone Inside Convection Algorithm {Simple-Detailed-CeilingDiffuser-TrombeWall},Zone Outside Convection Algorithm {Simple-Detailed-Tarp-MoWitt-DOE-2-BLAST}, Floor Area {m2},Exterior Gross Wall Area {m2},Exterior Net Wall Area {m2},Exterior Window Area {m2}, Number of Surfaces, Number of SubSurfaces, Number of Shading SubSurfaces,  Part of Total Building Area
 Zone Information, PLENUM-1,0.0,0.00,0.00,0.00,17.01,-1.04,2.70,1,1,1,0.00,34.01,-15.25,13.16,2.40,3.00,0.61,283.20,Simple,Simple,463.60,54.84,54.84,0.00,10,0,0,Yes
 Zone Information, SPACE1-1,0.0,0.00,0.00,0.00,14.06,-6.15,1.20,1,1,1,0.00,26.41,-15.25,1.35,0.00,2.40,2.44,239.25,Simple,Simple,99.16,73.20,51.39,21.81,6,2,4,Yes
 Zone Information, SPACE2-1,0.0,0.00,0.00,0.00,28.88,-7.88,1.20,1,1,1,25.06,34.01,-15.25,-2.09,0.00,2.40,2.44,103.31,Simple,Simple,42.74,36.48,27.36,9.12,6,1,0,Yes
 Zone Information, SPACE3-1,0.0,0.00,0.00,0.00,19.98,4.10,1.20,1,1,1,7.60,34.01,-3.35,13.16,0.00,2.40,2.44,239.25,Simple,Simple,96.48,73.20,52.35,20.85,6,2,0,Yes
 Zone Information, SPACE4-1,0.0,0.00,0.00,0.00,5.15,5.82,1.20,1,1,1,0.00,9.00,0.00,13.16,0.00,2.40,2.44,103.31,Simple,Simple,42.74,36.48,27.36,9.12,6,1,0,Yes
 Zone Information, SPACE5-1,0.0,0.00,0.00,0.00,17.03,-1.00,1.20,1,1,1,5.05,29.01,-10.20,8.20,0.00,2.40,2.44,447.68,Simple,Simple,182.49,0.00,0.00,0.00,6,0,0,Yes
! <Zone Internal Gains Nominal>,Zone Name, Floor Area {m2},# Occupants,Area per Occupant {m2/person},Occupant per Area {person/m2},Interior Lighting {W/m2},Electric Load {W/m2},Gas Load {W/m2},Other Load {W/m2},Hot Water Eq {W/m2},Steam Equipment {W/m2},Sum Loads per Area {W/m2},Outdoor Controlled Baseboard Heat
 Zone Internal Gains Nominal, PLENUM-1,463.60,0.0,N/A,0.000,0.000,0.000,0.000,0.000,0.000,0.000,0.000,No
 Zone Internal Gains Nominal, SPACE1-1,99.16,11.0,9.015,0.111,15.974,10.649,0.000,0.000,0.000,0.000,26.624,No
 Zone Internal Gains Nominal, SPACE2-1,42.74,5.0,8.547,0.117,16.006,10.670,0.000,0.000,0.000,0.000,26.676,No
 Zone Internal Gains Nominal, SPACE3-1,96.48,11.0,8.771,0.114,16.418,10.945,0.000,0.000,0.000,0.000,27.363,No
 Zone Internal Gains Nominal, SPACE4-1,42.74,5.0,8.547,0.117,16.006,10.670,0.000,0.000,0.000,0.000,26.676,No
 Zone Internal Gains Nominal, SPACE5-1,182.49,20.0,9.125,0.110,16.242,10.828,0.000,0.000,0.000,0.000,27.070,No
! <People Internal Gains Nominal>,Name,Schedule Name,Zone Name,Zone Floor Area {m2},# Zone Occupants,Number of People {},People/Floor Area {person/m2},Floor Area per person {m2/person},Fraction Radiant,Fraction Convected,Sensible Fraction Calculation,Activity level,ASHRAE 55 Warnings,Carbon Dioxide Generation Rate,Nominal Minimum Number of People,Nominal Maximum Number of People
 People Internal Gains Nominal, SPACE1-1 PEOPLE,OCCUPY-1,SPACE1-1,99.16,11.0,11.0,0.111,9.015,0.300,0.700,AutoCalculate,ACTSCHD,No,3.8200E-008,0,11
 People Internal Gains Nominal, SPACE2-1 PEOPLE,OCCUPY-1,SPACE2-1,42.74,5.0,5.0,0.117,8.547,0.300,0.700,AutoCalculate,ACTSCHD,No,3.8200E-008,0,5
 People Internal Gains Nominal, SPACE3-1 PEOPLE,OCCUPY-1,SPACE3-1,96.48,11.0,11.0,0.114,8.771,0.300,0.700,AutoCalculate,ACTSCHD,No,3.8200E-008,0,11
 People Internal Gains Nominal, SPACE4-1 PEOPLE,OCCUPY-1,SPACE4-1,42.74,5.0,5.0,0.117,8.547,0.300,0.700,AutoCalculate,ACTSCHD,No,3.8200E-008,0,5
 People Internal Gains Nominal, SPACE5-1 PEOPLE,OCCUPY-1,SPACE5-1,182.49,20.0,20.0,0.110,9.125,0.300,0.700,AutoCalculate,ACTSCHD,No,3.8200E-008,0,20
! <Lights Internal Gains Nominal>,Name,Schedule Name,Zone Name,Zone Floor Area {m2},# Zone Occupants,Lighting Level {W},Lights/Floor Area {W/m2},Lights per person {W/person},Fraction Return Air,Fraction Radiant,Fraction Short Wave,Fraction Convected,Fraction Replaceable,End-Use Category,Nominal Minimum Lighting Level {W},Nominal Maximum Lighting Level {W}
 Lights Internal Gains Nominal, SPACE1-1 LIGHTS,LIGHTS-1,SPACE1-1,99.16,11.0,1584.000,15.974,144.000,0.200,0.590,0.200,1.000E-002,0.000,GeneralLights,79.200,1584.000
 Lights Internal Gains Nominal, SPACE2-1 LIGHTS,LIGHTS-1,SPACE2-1,42.74,5.0,684.000,16.006,136.800,0.200,0.590,0.200,1.000E-002,0.000,GeneralLights,34.200,684.000
 Lights Internal Gains Nominal, SPACE3-1 LIGHTS,LIGHTS-1,SPACE3-1,96.48,11.0,1584.000,16.418,144.000,0.200,0.590,0.200,1.000E-002,0.000,GeneralLights,79.200,1584.000
 Lights Internal Gains Nominal, SPACE4-1 LIGHTS,LIGHTS-1,SPACE4-1,42.74,5.0,684.000,16.006,136.800,0.200,0.590,0.200,1.000E-002,0.000,GeneralLights,34.200,684.000
 Lights Internal Gains Nominal, SPACE5-1 LIGHTS,LIGHTS-1,SPACE5-1,182.49,20.0,2964.000,16.242,148.200,0.200,0.590,0.200,1.000E-002,0.000,GeneralLights,148.200,2964.000
! <ElectricEquipment Internal Gains Nominal>,Name,Schedule Name,Zone Name,Zone Floor Area {m2},# Zone Occupants,Equipment Level {W},Equipment/Floor Area {W/m2},Equipment per person {W/person},Fraction Latent,Fraction Radiant,Fraction Lost,Fraction Convected,End-Use SubCategory,Nominal Minimum Equipment Level {W},Nominal Maximum Equipment Level {W}
 ElectricEquipment Internal Gains Nominal, SPACE1-1 ELEC EQUIPMENT,EQUIP-1,SPACE1-1,99.16,11.0,1056.000,10.649,96.000,0.000,0.300,0.000,0.700,General,21.120,950.400
 ElectricEquipment Internal Gains Nominal, SPACE2-1 ELEC EQUIPMENT,EQUIP-1,SPACE2-1,42.74,5.0,456.000,10.670,91.200,0.000,0.300,0.000,0.700,General,9.120,410.400
 ElectricEquipment Internal Gains Nominal, SPACE3-1 ELEC EQUIPMENT,EQUIP-1,SPACE3-1,96.48,11.0,1056.000,10.945,96.000,0.000,0.300,0.000,0.700,General,21.120,950.400
 ElectricEquipment Internal Gains Nominal, SPACE4-1 ELEC EQUIPMENT,EQUIP-1,SPACE4-1,42.74,5.0,456.000,10.670,91.200,0.000,0.300,0.000,0.700,General,9.120,410.400
 ElectricEquipment Internal Gains Nominal, SPACE5-1 ELEC EQUIPMENT,EQUIP-1,SPACE5-1,182.49,20.0,1976.000,10.828,98.800,0.000,0.300,0.000,0.700,General,39.520,1778.400
! <Shadowing/Sun Position Calculations Annual Simulations>, Shading Calculation Method, Shading Calculation Update Frequency Method, Shading Calculation Update Frequency {days}, Maximum Figures in Shadow Overlap Calculations {}, Polygon Clipping Algorithm, Pixel Counting Resolution, Sky Diffuse Modeling Algorithm, Output External Shading Calculation Results, Disable Self-Shading Within Shading Zone Groups, Disable Self-Shading From Shading Zone Groups to Other Zones
Shadowing/Sun Position Calculations Annual Simulations,PolygonClipping,Periodic,20,15000,SutherlandHodgman,512,SimpleSkyDiffuseModeling,No,No,No
! <Water Heater Information>,Type,Name,Volume {m3},Maximum Capacity {W},Standard Rated Recovery Efficiency, Standard Rated Energy Factor
! <Heat Pump Water Heater Information>,Type,Name,Volume {m3},Maximum Capacity {W},Standard Rated Recovery Efficiency,Standard Rated Energy Factor,"DX Coil Total Cooling Rate {W, HPWH Only}"
! <Water Heater Stratified Node Information>,Node Number,Height {m},Volume {m3},Maximum Capacity {W},Off-Cycle UA {W/K},On-Cycle UA {W/K},Number Of Inlets,Number Of Outlets
! <ZoneInfiltration Airflow Stats Nominal>,Name,Schedule Name,Zone Name, Zone Floor Area {m2}, # Zone Occupants,Design Volume Flow Rate {m3/s},Volume Flow Rate/Floor Area {m3/s-m2},Volume Flow Rate/Exterior Surface Area {m3/s-m2},ACH - Air Changes per Hour,Equation A - Constant Term Coefficient {},Equation B - Temperature Term Coefficient {1/C},Equation C - Velocity Term Coefficient {s/m}, Equation D - Velocity Squared Term Coefficient {s2/m2}
 ZoneInfiltration Airflow Stats Nominal, SPACE1-1 INFILTRATION,INFIL-SCH,SPACE1-1,99.16,11.0,1.670E-002,1.684E-004,2.281E-004,0.251,0.000,0.000,0.224,0.000
 ZoneInfiltration Airflow Stats Nominal, SPACE2-1 INFILTRATION,INFIL-SCH,SPACE2-1,42.74,5.0,7.170E-003,1.678E-004,1.965E-004,0.250,0.000,0.000,0.224,0.000
 ZoneInfiltration Airflow Stats Nominal, SPACE3-1 INFILTRATION,INFIL-SCH,SPACE3-1,96.48,11.0,1.670E-002,1.731E-004,2.281E-004,0.251,0.000,0.000,0.224,0.000
 ZoneInfiltration Airflow Stats Nominal, SPACE4-1 INFILTRATION,INFIL-SCH,SPACE4-1,42.74,5.0,7.170E-003,1.678E-004,1.965E-004,0.250,0.000,0.000,0.224,0.000
 ZoneInfiltration Airflow Stats Nominal, SPACE5-1 INFILTRATION,INFIL-SCH,SPACE5-1,182.49,20.0,3.109E-002,1.704E-004,N/A,0.250,0.000,0.000,0.224,0.000
! <AirFlow Model>, Simple
 AirFlow Model, Simple
! <RoomAir Model>, Zone Name, Mixing/Mundt/UCSDDV/UCSDCV/UCSDUFI/UCSDUFE/User Defined
RoomAir Model,PLENUM-1,Mixing/Well-Stirred
RoomAir Model,SPACE1-1,Mixing/Well-Stirred
RoomAir Model,SPACE2-1,Mixing/Well-Stirred
RoomAir Model,SPACE3-1,Mixing/Well-Stirred
RoomAir Model,SPACE4-1,Mixing/Well-Stirred
RoomAir Model,SPACE5-1,Mixing/Well-Stirred
! <AirflowNetwork Model:Control>, No Multizone or Distribution/Multizone with Distribution/Multizone without Distribution/Multizone with Distribution only during Fan Operation
AirflowNetwork Model:Control,NoMultizoneOrDistribution
! <Zone Volume Capacitance Multiplier>, Sensible Heat Capacity Multiplier, Moisture Capacity Multiplier, Carbon Dioxide Capacity Multiplier, Generic Contaminant Capacity Multiplier
Zone Volume Capacitance Multiplier,   1.000 ,   1.000,   1.000,   1.000
! <Load Timesteps in Zone Design Calculation Averaging Window>, Value
 Load Timesteps in Zone Design Calculation Averaging Window,    4
! <Heating Sizing Factor Information>, Sizing Factor ID, Value
 Heating Sizing Factor Information, Global,   1.3000    
 Heating Sizing Factor Information, Zone SPACE1-1,   1.3000    
 Heating Sizing Factor Information, Zone SPACE2-1,   1.3000    
 Heating Sizing Factor Information, Zone SPACE3-1,   1.3000    
 Heating Sizing Factor Information, Zone SPACE4-1,   1.3000    
 Heating Sizing Factor Information, Zone SPACE5-1,   1.3000    
! <Cooling Sizing Factor Information>, Sizing Factor ID, Value
 Cooling Sizing Factor Information, Global,   1.3000    
 Cooling Sizing Factor Information, Zone SPACE1-1,   1.3000    
 Cooling Sizing Factor Information, Zone SPACE2-1,   1.3000    
 Cooling Sizing Factor Information, Zone SPACE3-1,   1.3000    
 Cooling Sizing Factor Information, Zone SPACE4-1,   1.3000    
 Cooling Sizing Factor Information, Zone SPACE5-1,   1.3000    
! <Zone Sizing Information>, Zone Name, Load Type, Calc Des Load {W}, User Des Load {W}, Calc Des Air Flow Rate {m3/s}, User Des Air Flow Rate {m3/s}, Design Day Name, Date/Time of Peak, Temperature at Peak {C}, Humidity Ratio at Peak {kgWater/kgDryAir}, Floor Area {m2}, # Occupants, Calc Outdoor Air Flow Rate {m3/s}, Calc DOAS Heat Addition Rate {W}
 Zone Sizing Information, SPACE1-1, Cooling, 2779.60378, 3613.48492, 0.22857, 0.29714, MIAMI INTL AP ANN CLG .4% CONDNS DB=>MWB, 7/21 16:00:00, 32.79800, 1.71614E-002, 99.16000, 11.00000, 0.10384, 0.00000
 Zone Sizing Information, SPACE1-1, Heating, 1290.79388, 1678.03205, 3.66855E-002, 0.10384, MIAMI INTL AP ANN HTG 99.6% CONDNS DB, 1/21 09:00:00, 8.70000, 6.99118E-003, 99.16000, 11.00000, 0.10384, 0.00000
 Zone Sizing Information, SPACE2-1, Cooling, 1991.96274, 2589.55156, 0.16379, 0.21293, MIAMI INTL AP ANN CLG .4% CONDNS DB=>MWB, 7/21 11:00:00, 31.65900, 1.71593E-002, 42.73500, 5.00000, 4.72000E-002, 0.00000
 Zone Sizing Information, SPACE2-1, Heating, 551.10184, 716.43240, 1.56628E-002, 4.72000E-002, MIAMI INTL AP ANN HTG 99.6% CONDNS DB, 1/21 09:00:00, 8.70000, 6.99118E-003, 42.73500, 5.00000, 4.72000E-002, 0.00000
 Zone Sizing Information, SPACE3-1, Cooling, 3105.00942, 4036.51225, 0.25531, 0.33191, MIAMI INTL AP ANN CLG .4% CONDNS DB=>MWB, 7/21 11:00:00, 31.65900, 1.71593E-002, 96.48000, 11.00000, 0.10384, 0.00000
 Zone Sizing Information, SPACE3-1, Heating, 1270.87908, 1652.14280, 3.61195E-002, 0.10384, MIAMI INTL AP ANN HTG 99.6% CONDNS DB, 1/21 09:00:00, 8.70000, 6.99118E-003, 96.48000, 11.00000, 0.10384, 0.00000
 Zone Sizing Information, SPACE4-1, Cooling, 2689.94798, 3496.93237, 0.22120, 0.28756, MIAMI INTL AP ANN CLG .4% CONDNS DB=>MWB, 7/21 17:00:00, 32.26200, 1.71604E-002, 42.73500, 5.00000, 4.72000E-002, 0.00000
 Zone Sizing Information, SPACE4-1, Heating, 505.39127, 657.00865, 1.43637E-002, 4.72000E-002, MIAMI INTL AP ANN HTG 99.6% CONDNS DB, 1/21 09:00:00, 8.70000, 6.99118E-003, 42.73500, 5.00000, 4.72000E-002, 0.00000
 Zone Sizing Information, SPACE5-1, Cooling, 2828.66003, 3677.25804, 0.23261, 0.30240, MIAMI INTL AP ANN CLG .4% CONDNS DB=>MWB, 7/21 16:00:00, 32.79800, 1.71614E-002, 182.49000, 20.00000, 0.18880, 0.00000
 Zone Sizing Information, SPACE5-1, Heating, 964.30395, 1253.59514, 2.74067E-002, 0.18880, MIAMI INTL AP ANN HTG 99.6% CONDNS DB, 1/21 09:00:00, 8.70000, 6.99118E-003, 182.49000, 20.00000, 0.18880, 0.00000
! <System Sizing Information>, System Name, Load Type, Peak Load Kind, User Design Capacity, Calc Des Air Flow Rate [m3/s], User Des Air Flow Rate [m3/s], Design Day Name, Date/Time of Peak
 System Sizing Information, VAV SYS 1, Cooling, Sensible, 25404.93, 1.43193, 1.43193, MIAMI INTL AP ANN CLG .4% CONDNS DB=>MWB, 7/21 00:00:00
 System Sizing Information, VAV SYS 1, Heating, Sensible, 4746.15, 0.49088, 0.49088, MIAMI INTL AP ANN HTG 99.6% CONDNS DB, 1/21 00:30:00
! <Component Sizing Information>, Component Type, Component Name, Input Field Description, Value
 Component Sizing Information, AirTerminal:SingleDuct:VAV:Reheat, SPACE1-1 VAV REHEAT, Design Size Maximum Air Flow Rate [m3/s], 0.29714
 Component Sizing Information, AirTerminal:SingleDuct:VAV:Reheat, SPACE1-1 VAV REHEAT, Design Size Constant Minimum Air Flow Fraction, 0.25429
 Component Sizing Information, AirTerminal:SingleDuct:VAV:Reheat, SPACE1-1 VAV REHEAT, User-Specified Constant Minimum Air Flow Fraction, 0.30000
 Component Sizing Information, AirTerminal:SingleDuct:VAV:Reheat, SPACE1-1 VAV REHEAT, Design Size Minimum Air Flow Rate [m3/s], 8.91427E-002
 Component Sizing Information, AirTerminal:SingleDuct:VAV:Reheat, SPACE1-1 VAV REHEAT, Design Size Maximum Flow Fraction during Reheat [], 0.67810
 Component Sizing Information, AirTerminal:SingleDuct:VAV:Reheat, SPACE1-1 VAV REHEAT, Design Size Maximum Flow per Zone Floor Area during Reheat [m3/s-m2], 2.03200E-003
 Component Sizing Information, AirTerminal:SingleDuct:VAV:Reheat, SPACE1-1 VAV REHEAT, Design Size Maximum Reheat Water Flow Rate [m3/s], 4.76304E-005
 Component Sizing Information, AirTerminal:SingleDuct:VAV:Reheat, SPACE1-1 VAV REHEAT, Design Size Reheat Coil Sizing Air Volume Flow Rate [m3/s], 8.91427E-002
 Component Sizing Information, AirTerminal:SingleDuct:VAV:Reheat, SPACE1-1 VAV REHEAT, Design Size Reheat Coil Sizing Inlet Air Temperature [C], 16.70000
 Component Sizing Information, AirTerminal:SingleDuct:VAV:Reheat, SPACE1-1 VAV REHEAT, Design Size Reheat Coil Sizing Inlet Air Humidity Ratio [kgWater/kgDryAir], 8.00000E-003
 Component Sizing Information, Coil:Heating:Water, SPACE1-1 ZONE COIL, Design Size Rated Capacity [W], 2155.82808
 Component Sizing Information, Coil:Heating:Water, SPACE1-1 ZONE COIL, Design Size Maximum Water Flow Rate [m3/s], 4.76304E-005
 Component Sizing Information, Coil:Heating:Water, SPACE1-1 ZONE COIL, Design Size U-Factor Times Area Value [W/K], 76.60790
! <Water Heating Coil Capacity Information>,Component Type,Name,Nominal Total Capacity {W}
Water Heating Coil Capacity Information,Coil:Heating:Water,SPACE1-1 ZONE COIL,3128.47
 Component Sizing Information, AirTerminal:SingleDuct:VAV:Reheat, SPACE2-1 VAV REHEAT, Design Size Maximum Air Flow Rate [m3/s], 0.21293
 Component Sizing Information, AirTerminal:SingleDuct:VAV:Reheat, SPACE2-1 VAV REHEAT, Design Size Constant Minimum Air Flow Fraction, 0.20000
 Component Sizing Information, AirTerminal:SingleDuct:VAV:Reheat, SPACE2-1 VAV REHEAT, User-Specified Constant Minimum Air Flow Fraction, 0.30000
 Component Sizing Information, AirTerminal:SingleDuct:VAV:Reheat, SPACE2-1 VAV REHEAT, Design Size Minimum Air Flow Rate [m3/s], 6.38784E-002
 Component Sizing Information, AirTerminal:SingleDuct:VAV:Reheat, SPACE2-1 VAV REHEAT, Design Size Maximum Flow Fraction during Reheat [], 0.66490
 Component Sizing Information, AirTerminal:SingleDuct:VAV:Reheat, SPACE2-1 VAV REHEAT, Design Size Maximum Flow per Zone Floor Area during Reheat [m3/s-m2], 3.31289E-003
 Component Sizing Information, AirTerminal:SingleDuct:VAV:Reheat, SPACE2-1 VAV REHEAT, Design Size Maximum Reheat Water Flow Rate [m3/s], 2.33932E-005
 Component Sizing Information, AirTerminal:SingleDuct:VAV:Reheat, SPACE2-1 VAV REHEAT, Design Size Reheat Coil Sizing Air Volume Flow Rate [m3/s], 6.38784E-002
 Component Sizing Information, AirTerminal:SingleDuct:VAV:Reheat, SPACE2-1 VAV REHEAT, Design Size Reheat Coil Sizing Inlet Air Temperature [C], 16.70000
 Component Sizing Information, AirTerminal:SingleDuct:VAV:Reheat, SPACE2-1 VAV REHEAT, Design Size Reheat Coil Sizing Inlet Air Humidity Ratio [kgWater/kgDryAir], 8.00000E-003
 Component Sizing Information, Coil:Heating:Water, SPACE2-1 ZONE COIL, Design Size Rated Capacity [W], 1058.81355
 Component Sizing Information, Coil:Heating:Water, SPACE2-1 ZONE COIL, Design Size Maximum Water Flow Rate [m3/s], 2.33932E-005
 Component Sizing Information, Coil:Heating:Water, SPACE2-1 ZONE COIL, Design Size U-Factor Times Area Value [W/K], 34.07786
Water Heating Coil Capacity Information,Coil:Heating:Water,SPACE2-1 ZONE COIL,1537.75
 Component Sizing Information, AirTerminal:SingleDuct:VAV:Reheat, SPACE3-1 VAV REHEAT, Design Size Maximum Air Flow Rate [m3/s], 0.33191
 Component Sizing Information, AirTerminal:SingleDuct:VAV:Reheat, SPACE3-1 VAV REHEAT, Design Size Constant Minimum Air Flow Fraction, 0.22150
 Component Sizing Information, AirTerminal:SingleDuct:VAV:Reheat, SPACE3-1 VAV REHEAT, User-Specified Constant Minimum Air Flow Fraction, 0.30000
 Component Sizing Information, AirTerminal:SingleDuct:VAV:Reheat, SPACE3-1 VAV REHEAT, Design Size Minimum Air Flow Rate [m3/s], 9.95720E-002
 Component Sizing Information, AirTerminal:SingleDuct:VAV:Reheat, SPACE3-1 VAV REHEAT, Design Size Maximum Flow Fraction during Reheat [], 0.59067
 Component Sizing Information, AirTerminal:SingleDuct:VAV:Reheat, SPACE3-1 VAV REHEAT, Design Size Maximum Flow per Zone Floor Area during Reheat [m3/s-m2], 2.03200E-003
 Component Sizing Information, AirTerminal:SingleDuct:VAV:Reheat, SPACE3-1 VAV REHEAT, Design Size Maximum Reheat Water Flow Rate [m3/s], 4.82935E-005
 Component Sizing Information, AirTerminal:SingleDuct:VAV:Reheat, SPACE3-1 VAV REHEAT, Design Size Reheat Coil Sizing Air Volume Flow Rate [m3/s], 9.95720E-002
 Component Sizing Information, AirTerminal:SingleDuct:VAV:Reheat, SPACE3-1 VAV REHEAT, Design Size Reheat Coil Sizing Inlet Air Temperature [C], 16.70000
 Component Sizing Information, AirTerminal:SingleDuct:VAV:Reheat, SPACE3-1 VAV REHEAT, Design Size Reheat Coil Sizing Inlet Air Humidity Ratio [kgWater/kgDryAir], 8.00000E-003
 Component Sizing Information, Coil:Heating:Water, SPACE3-1 ZONE COIL, Design Size Rated Capacity [W], 2185.84303
 Component Sizing Information, Coil:Heating:Water, SPACE3-1 ZONE COIL, Design Size Maximum Water Flow Rate [m3/s], 4.82935E-005
 Component Sizing Information, Coil:Heating:Water, SPACE3-1 ZONE COIL, Design Size U-Factor Times Area Value [W/K], 75.22780
Water Heating Coil Capacity Information,Coil:Heating:Water,SPACE3-1 ZONE COIL,3172.74
Water Heater Stratified Node Information,1,5.1488E-002,3.7850E-002,0.000,0.5875,0.5875,0,1
Water Heater Stratified Node Information,2,5.1488E-002,3.7850E-002,0.000,0.1031,0.1031,0,0
Water Heater Stratified Node Information,3,5.1488E-002,3.7850E-002,0.000,0.1031,0.1031,0,0
Water Heater Stratified Node Information,4,5.1488E-002,3.7850E-002,5000.000,0.1031,0.1031,0,0
Water Heater Stratified Node Information,5,5.1488E-002,3.7850E-002,0.000,0.1031,0.1031,0,0
Water Heater Stratified Node Information,6,5.1488E-002,3.7850E-002,0.000,0.1031,0.1031,0,1
Water Heater Stratified Node Information,7,5.1488E-002,3.7850E-002,0.000,0.1031,0.1031,0,0
Water Heater Stratified Node Information,8,5.1488E-002,3.7850E-002,0.000,0.1031,0.1031,0,0
Water Heater Stratified Node Information,9,5.1488E-002,3.7850E-002,0.000,0.1031,0.1031,0,0
Water Heater Stratified Node Information,10,5.1488E-002,3.7850E-002,0.000,0.5875,0.5875,2,0
 Component Sizing Information, Coil:WaterHeating:AirToWaterHeatPump:Pumped, ZONE4HPWHDXCOIL, Design Size Rated Evaporator Air Flow Rate [m3/s], 0.20140
 Component Sizing Information, Coil:WaterHeating:AirToWaterHeatPump:Pumped, ZONE4HPWHDXCOIL, Design Size Rated Condenser Water Flow Rate [m3/s], 1.79480E-004
 Component Sizing Information, Fan:OnOff, ZONE4HPWHFAN, Design Size Maximum Flow Rate [m3/s], 0.20140
 Component Sizing Information, Fan:OnOff, ZONE4HPWHFAN, User-Specified Maximum Flow Rate [m3/s], 0.26850
Heat Pump Water Heater Information,WaterHeater:HeatPump:PumpedCondenser,ZONE4HEATPUMPWATERHEATER,0.3785,3331.3,10.074,5.9256,2653
 Component Sizing Information, AirTerminal:SingleDuct:VAV:Reheat, SPACE4-1 VAV REHEAT, Design Size Maximum Air Flow Rate [m3/s], 0.28756
 Component Sizing Information, AirTerminal:SingleDuct:VAV:Reheat, SPACE4-1 VAV REHEAT, Design Size Constant Minimum Air Flow Fraction, 0.20000
 Component Sizing Information, AirTerminal:SingleDuct:VAV:Reheat, SPACE4-1 VAV REHEAT, User-Specified Constant Minimum Air Flow Fraction, 0.30000
 Component Sizing Information, AirTerminal:SingleDuct:VAV:Reheat, SPACE4-1 VAV REHEAT, Design Size Minimum Air Flow Rate [m3/s], 8.62673E-002
 Component Sizing Information, AirTerminal:SingleDuct:VAV:Reheat, SPACE4-1 VAV REHEAT, Design Size Maximum Flow Fraction during Reheat [], 0.49234
 Component Sizing Information, AirTerminal:SingleDuct:VAV:Reheat, SPACE4-1 VAV REHEAT, Design Size Maximum Flow per Zone Floor Area during Reheat [m3/s-m2], 3.31289E-003
 Component Sizing Information, AirTerminal:SingleDuct:VAV:Reheat, SPACE4-1 VAV REHEAT, Design Size Maximum Reheat Water Flow Rate [m3/s], 2.47320E-005
 Component Sizing Information, AirTerminal:SingleDuct:VAV:Reheat, SPACE4-1 VAV REHEAT, Design Size Reheat Coil Sizing Air Volume Flow Rate [m3/s], 8.62673E-002
 Component Sizing Information, AirTerminal:SingleDuct:VAV:Reheat, SPACE4-1 VAV REHEAT, Design Size Reheat Coil Sizing Inlet Air Temperature [C], 16.70000
 Component Sizing Information, AirTerminal:SingleDuct:VAV:Reheat, SPACE4-1 VAV REHEAT, Design Size Reheat Coil Sizing Inlet Air Humidity Ratio [kgWater/kgDryAir], 8.00000E-003
 Component Sizing Information, Coil:Heating:Water, SPACE4-1 ZONE COIL, Design Size Rated Capacity [W], 1119.41172
 Component Sizing Information, Coil:Heating:Water, SPACE4-1 ZONE COIL, Design Size Maximum Water Flow Rate [m3/s], 2.47320E-005
 Component Sizing Information, Coil:Heating:Water, SPACE4-1 ZONE COIL, Design Size U-Factor Times Area Value [W/K], 34.57621
Water Heating Coil Capacity Information,Coil:Heating:Water,SPACE4-1 ZONE COIL,1623.15
Water Heater Stratified Node Information,1,5.1488E-002,3.7850E-002,0.000,0.5875,0.5875,0,1
Water Heater Stratified Node Information,2,5.1488E-002,3.7850E-002,0.000,0.1031,0.1031,0,0
Water Heater Stratified Node Information,3,5.1488E-002,3.7850E-002,0.000,0.1031,0.1031,0,0
Water Heater Stratified Node Information,4,5.1488E-002,3.7850E-002,5000.000,0.1031,0.1031,0,0
Water Heater Stratified Node Information,5,5.1488E-002,3.7850E-002,0.000,0.1031,0.1031,0,0
Water Heater Stratified Node Information,6,5.1488E-002,3.7850E-002,0.000,0.1031,0.1031,0,1
Water Heater Stratified Node Information,7,5.1488E-002,3.7850E-002,0.000,0.1031,0.1031,0,0
Water Heater Stratified Node Information,8,5.1488E-002,3.7850E-002,0.000,0.1031,0.1031,0,0
Water Heater Stratified Node Information,9,5.1488E-002,3.7850E-002,0.000,0.1031,0.1031,0,0
Water Heater Stratified Node Information,10,5.1488E-002,3.7850E-002,0.000,0.5875,0.5875,2,0
 Component Sizing Information, Coil:WaterHeating:AirToWaterHeatPump:Pumped, HPWHDXCOIL, Design Size Rated Evaporator Air Flow Rate [m3/s], 0.20140
 Component Sizing Information, Coil:WaterHeating:AirToWaterHeatPump:Pumped, HPWHDXCOIL, Design Size Rated Condenser Water Flow Rate [m3/s], 1.79480E-004
 Component Sizing Information, Fan:OnOff, HPWHFAN, Design Size Maximum Flow Rate [m3/s], 0.20140
 Component Sizing Information, Fan:OnOff, HPWHFAN, User-Specified Maximum Flow Rate [m3/s], 0.26850
Heat Pump Water Heater Information,WaterHeater:HeatPump:PumpedCondenser,ZONE5HEATPUMPWATERHEATER,0.3785,3331.3,10.074,5.9256,2653
 Component Sizing Information, AirTerminal:SingleDuct:VAV:Reheat, SPACE5-1 VAV REHEAT, Design Size Maximum Air Flow Rate [m3/s], 0.30240
 Component Sizing Information, AirTerminal:SingleDuct:VAV:Reheat, SPACE5-1 VAV REHEAT, Design Size Constant Minimum Air Flow Fraction, 0.45985
 Component Sizing Information, AirTerminal:SingleDuct:VAV:Reheat, SPACE5-1 VAV REHEAT, User-Specified Constant Minimum Air Flow Fraction, 0.30000
 Component Sizing Information, AirTerminal:SingleDuct:VAV:Reheat, SPACE5-1 VAV REHEAT, Design Size Minimum Air Flow Rate [m3/s], 9.07197E-002
 Component Sizing Information, AirTerminal:SingleDuct:VAV:Reheat, SPACE5-1 VAV REHEAT, Design Size Maximum Flow Fraction during Reheat [], 1.00000
 Component Sizing Information, AirTerminal:SingleDuct:VAV:Reheat, SPACE5-1 VAV REHEAT, Design Size Maximum Flow per Zone Floor Area during Reheat [m3/s-m2], 1.65707E-003
 Component Sizing Information, AirTerminal:SingleDuct:VAV:Reheat, SPACE5-1 VAV REHEAT, Design Size Maximum Reheat Water Flow Rate [m3/s], 3.84532E-005
 Component Sizing Information, AirTerminal:SingleDuct:VAV:Reheat, SPACE5-1 VAV REHEAT, Design Size Reheat Coil Sizing Air Volume Flow Rate [m3/s], 9.07197E-002
 Component Sizing Information, AirTerminal:SingleDuct:VAV:Reheat, SPACE5-1 VAV REHEAT, Design Size Reheat Coil Sizing Inlet Air Temperature [C], 16.70000
 Component Sizing Information, AirTerminal:SingleDuct:VAV:Reheat, SPACE5-1 VAV REHEAT, Design Size Reheat Coil Sizing Inlet Air Humidity Ratio [kgWater/kgDryAir], 8.00000E-003
 Component Sizing Information, Coil:Heating:Water, SPACE5-1 ZONE COIL, Design Size Rated Capacity [W], 1740.45574
 Component Sizing Information, Coil:Heating:Water, SPACE5-1 ZONE COIL, Design Size Maximum Water Flow Rate [m3/s], 3.84532E-005
 Component Sizing Information, Coil:Heating:Water, SPACE5-1 ZONE COIL, Design Size U-Factor Times Area Value [W/K], 57.76691
Water Heating Coil Capacity Information,Coil:Heating:Water,SPACE5-1 ZONE COIL,2526.98
 Component Sizing Information, AirLoopHVAC, VAV SYS 1, Sum of Air Terminal Maximum Heating Flow Rates [m3/s], 0.98309
 Component Sizing Information, AirLoopHVAC, VAV SYS 1, Sum of Air Terminal Minimum Heating Flow Rates [m3/s], 0.42958
 Component Sizing Information, AirLoopHVAC, VAV SYS 1, Sum of Air Terminal Maximum Flow Rates [m3/s], 1.43193
 Component Sizing Information, AirLoopHVAC, VAV SYS 1, Adjusted Heating Design Air Flow Rate [m3/s], 0.98309
 Component Sizing Information, AirLoopHVAC, VAV SYS 1, Adjusted Cooling Design Air Flow Rate [m3/s], 1.43193
 Component Sizing Information, AirLoopHVAC, VAV SYS 1, Adjusted Main Design Air Flow Rate [m3/s], 1.43193
 Component Sizing Information, AirLoopHVAC, VAV SYS 1, User Heating Air Flow Ratio [], 0.30000
 Component Sizing Information, AirLoopHVAC, VAV SYS 1, Calculated Heating Air Flow Ratio [], 0.68655
 Component Sizing Information, WaterHeater:HeatPump:PumpedCondenser, ZONE4HEATPUMPWATERHEATER, Condenser water flow rate [m3/s], 1.79480E-004
 Component Sizing Information, WaterHeater:HeatPump:PumpedCondenser, ZONE4HEATPUMPWATERHEATER, Evaporator air flow rate [m3/s], 0.20140
 Component Sizing Information, WaterHeater:HeatPump:PumpedCondenser, ZONE5HEATPUMPWATERHEATER, Condenser water flow rate [m3/s], 1.79480E-004
 Component Sizing Information, WaterHeater:HeatPump:PumpedCondenser, ZONE5HEATPUMPWATERHEATER, Evaporator air flow rate [m3/s], 0.20140
 Component Sizing Information, AirLoopHVAC, VAV SYS 1, Design Supply Air Flow Rate [m3/s], 1.43193
 Component Sizing Information, Coil:Cooling:Water, MAIN COOLING COIL 1, Design Size Design Inlet Air Temperature [C], 27.47976
 Component Sizing Information, Coil:Cooling:Water, MAIN COOLING COIL 1, Design Size Design Inlet Water Temperature [C], 7.22000
 Component Sizing Information, Coil:Cooling:Water, MAIN COOLING COIL 1, Design Size Design Outlet Air Temperature [C], 12.10651
 Component Sizing Information, Coil:Cooling:Water, MAIN COOLING COIL 1, Design Size Design Inlet Air Humidity Ratio [kgWater/kgDryAir], 1.22680E-002
 Component Sizing Information, Coil:Cooling:Water, MAIN COOLING COIL 1, Design Size Design Outlet Air Humidity Ratio [kgWater/kgDryAir], 8.00000E-003
 Component Sizing Information, Coil:Cooling:Water, MAIN COOLING COIL 1, Design Size Design Coil Load [W], 45757.21805
 Component Sizing Information, Coil:Cooling:Water, MAIN COOLING COIL 1, Design Size Design Water Flow Rate [m3/s], 1.63434E-003
 Component Sizing Information, Coil:Cooling:Water, MAIN COOLING COIL 1, Design Size Design Air Flow Rate [m3/s], 1.43193
! <Water Cooling Coil Capacity Information>,Component Type,Name,Nominal Total Capacity {W},Nominal Sensible Capacity {W},Nominal Latent Capacity {W},Nominal Sensible Heat Ratio, Nominal Coil UA Value {W/C}, Nominal Coil Surface Area {m2}
Water Cooling Coil Capacity Information,Coil:Cooling:Water,MAIN COOLING COIL 1,43272.44,28551.79,14720.65,0.66,5585.59,56.65
 Component Sizing Information, Coil:Heating:Water, MAIN HEATING COIL 1, Design Size Rated Capacity [W], 4153.46395
 Component Sizing Information, Coil:Heating:Water, MAIN HEATING COIL 1, Design Size Maximum Water Flow Rate [m3/s], 9.17657E-005
 Component Sizing Information, Coil:Heating:Water, MAIN HEATING COIL 1, Design Size U-Factor Times Area Value [W/K], 98.75142
Water Heating Coil Capacity Information,Coil:Heating:Water,MAIN HEATING COIL 1,5120.10
 Component Sizing Information, Fan:VariableVolume, SUPPLY FAN 1, Design Size Maximum Flow Rate [m3/s], 1.43193
 Component Sizing Information, Controller:WaterCoil, CENTRAL COOLING COIL CONTOLLER 1, Maximum Actuated Flow [m3/s], 1.63434E-003
 Component Sizing Information, Controller:WaterCoil, CENTRAL HEATING COIL CONTOLLER 1, Maximum Actuated Flow [m3/s], 9.17657E-005
Water Heater Stratified Node Information,1,5.1488E-002,3.7850E-002,0.000,0.5875,0.5875,0,1
Water Heater Stratified Node Information,2,5.1488E-002,3.7850E-002,0.000,0.1031,0.1031,0,0
Water Heater Stratified Node Information,3,5.1488E-002,3.7850E-002,0.000,0.1031,0.1031,0,0
Water Heater Stratified Node Information,4,5.1488E-002,3.7850E-002,5000.000,0.1031,0.1031,0,0
Water Heater Stratified Node Information,5,5.1488E-002,3.7850E-002,0.000,0.1031,0.1031,0,0
Water Heater Stratified Node Information,6,5.1488E-002,3.7850E-002,0.000,0.1031,0.1031,0,1
Water Heater Stratified Node Information,7,5.1488E-002,3.7850E-002,0.000,0.1031,0.1031,0,0
Water Heater Stratified Node Information,8,5.1488E-002,3.7850E-002,0.000,0.1031,0.1031,0,0
Water Heater Stratified Node Information,9,5.1488E-002,3.7850E-002,0.000,0.1031,0.1031,0,0
Water Heater Stratified Node Information,10,5.1488E-002,3.7850E-002,0.000,0.5875,0.5875,2,0
 Component Sizing Information, Fan:OnOff, HPWHOUTDOORFAN, User-Specified Maximum Flow Rate [m3/s], 0.26850
Heat Pump Water Heater Information,WaterHeater:HeatPump:PumpedCondenser,OUTDOORHEATPUMPWATERHEATER,0.3785,3331.3,10.687,6.2982,2653
Water Heater Stratified Node Information,1,5.1488E-002,3.7850E-002,0.000,0.5875,0.5875,0,1
Water Heater Stratified Node Information,2,5.1488E-002,3.7850E-002,0.000,0.1031,0.1031,0,0
Water Heater Stratified Node Information,3,5.1488E-002,3.7850E-002,0.000,0.1031,0.1031,0,0
Water Heater Stratified Node Information,4,5.1488E-002,3.7850E-002,5000.000,0.1031,0.1031,0,0
Water Heater Stratified Node Information,5,5.1488E-002,3.7850E-002,0.000,0.1031,0.1031,0,0
Water Heater Stratified Node Information,6,5.1488E-002,3.7850E-002,0.000,0.1031,0.1031,0,1
Water Heater Stratified Node Information,7,5.1488E-002,3.7850E-002,0.000,0.1031,0.1031,0,0
Water Heater Stratified Node Information,8,5.1488E-002,3.7850E-002,0.000,0.1031,0.1031,0,0
Water Heater Stratified Node Information,9,5.1488E-002,3.7850E-002,0.000,0.1031,0.1031,0,0
Water Heater Stratified Node Information,10,5.1488E-002,3.7850E-002,0.000,0.5875,0.5875,2,0
 Component Sizing Information, Fan:OnOff, HPWHSCHEDULEDFAN, User-Specified Maximum Flow Rate [m3/s], 0.26850
Heat Pump Water Heater Information,WaterHeater:HeatPump:PumpedCondenser,SCHEDULEDHEATPUMPWATERHEATER,0.3785,3328.7,11.239,6.6517,2689
Water Heater Stratified Node Information,1,5.1488E-002,3.7850E-002,0.000,0.5875,0.5875,0,1
Water Heater Stratified Node Information,2,5.1488E-002,3.7850E-002,0.000,0.1031,0.1031,0,0
Water Heater Stratified Node Information,3,5.1488E-002,3.7850E-002,0.000,0.1031,0.1031,0,0
Water Heater Stratified Node Information,4,5.1488E-002,3.7850E-002,5000.000,0.1031,0.1031,0,0
Water Heater Stratified Node Information,5,5.1488E-002,3.7850E-002,0.000,0.1031,0.1031,0,0
Water Heater Stratified Node Information,6,5.1488E-002,3.7850E-002,0.000,0.1031,0.1031,0,0
Water Heater Stratified Node Information,7,5.1488E-002,3.7850E-002,0.000,0.1031,0.1031,0,0
Water Heater Stratified Node Information,8,5.1488E-002,3.7850E-002,0.000,0.1031,0.1031,0,0
Water Heater Stratified Node Information,9,5.1488E-002,3.7850E-002,0.000,0.1031,0.1031,0,0
Water Heater Stratified Node Information,10,5.1488E-002,3.7850E-002,0.000,0.5875,0.5875,1,0
Water Heater Information,WaterHeater:Stratified,SCHEDULEDELECTRICTANK,0.3785,5000.0,4.097,1.9530
 Component Sizing Information, Fan:OnOff, HPWHPLANTFAN, Design Size Maximum Flow Rate [m3/s], 1.00695
 Component Sizing Information, Fan:OnOff, HPWHPLANTFAN, User-Specified Maximum Flow Rate [m3/s], 2.68520
Heat Pump Water Heater Information,WaterHeater:HeatPump:PumpedCondenser,PLANTHEATPUMPWATERHEATER,0.7570,20623.9,8.328,27.8501,16505
Water Heater Stratified Node Information,1,6.4871E-002,7.5700E-002,0.000,0.0000,0.0000,0,1
Water Heater Stratified Node Information,2,6.4871E-002,7.5700E-002,0.000,0.0000,0.0000,0,0
Water Heater Stratified Node Information,3,6.4871E-002,7.5700E-002,0.000,0.0000,0.0000,0,0
Water Heater Stratified Node Information,4,6.4871E-002,7.5700E-002,25000.000,0.0000,0.0000,0,0
Water Heater Stratified Node Information,5,6.4871E-002,7.5700E-002,0.000,0.0000,0.0000,0,1
Water Heater Stratified Node Information,6,6.4871E-002,7.5700E-002,0.000,0.0000,0.0000,0,0
Water Heater Stratified Node Information,7,6.4871E-002,7.5700E-002,0.000,0.0000,0.0000,0,0
Water Heater Stratified Node Information,8,6.4871E-002,7.5700E-002,0.000,0.0000,0.0000,0,0
Water Heater Stratified Node Information,9,6.4871E-002,7.5700E-002,0.000,0.0000,0.0000,0,0
Water Heater Stratified Node Information,10,6.4871E-002,7.5700E-002,0.000,0.0000,0.0000,2,0
 Component Sizing Information, Coil:WaterHeating:AirToWaterHeatPump:Pumped, ZONE4BHPWHDXCOIL, Design Size Rated Evaporator Air Flow Rate [m3/s], 0.20140
 Component Sizing Information, Coil:WaterHeating:AirToWaterHeatPump:Pumped, ZONE4BHPWHDXCOIL, Design Size Rated Condenser Water Flow Rate [m3/s], 1.79480E-004
 Component Sizing Information, Fan:OnOff, ZONE4BHPWHFAN, Design Size Maximum Flow Rate [m3/s], 0.20140
 Component Sizing Information, Fan:OnOff, ZONE4BHPWHFAN, User-Specified Maximum Flow Rate [m3/s], 0.26850
Heat Pump Water Heater Information,WaterHeater:HeatPump:PumpedCondenser,ZONE4BHEATPUMPWATERHEATER,0.3785,3331.3,10.074,5.9256,2653
Water Heater Stratified Node Information,1,5.1488E-002,3.7850E-002,0.000,0.5875,0.5875,0,1
Water Heater Stratified Node Information,2,5.1488E-002,3.7850E-002,0.000,0.1031,0.1031,0,0
Water Heater Stratified Node Information,3,5.1488E-002,3.7850E-002,0.000,0.1031,0.1031,0,0
Water Heater Stratified Node Information,4,5.1488E-002,3.7850E-002,4000.000,0.1031,0.1031,0,0
Water Heater Stratified Node Information,5,5.1488E-002,3.7850E-002,0.000,0.1031,0.1031,0,0
Water Heater Stratified Node Information,6,5.1488E-002,3.7850E-002,0.000,0.1031,0.1031,0,1
Water Heater Stratified Node Information,7,5.1488E-002,3.7850E-002,0.000,0.1031,0.1031,0,0
Water Heater Stratified Node Information,8,5.1488E-002,3.7850E-002,0.000,0.1031,0.1031,0,0
Water Heater Stratified Node Information,9,5.1488E-002,3.7850E-002,0.000,0.1031,0.1031,0,0
Water Heater Stratified Node Information,10,5.1488E-002,3.7850E-002,0.000,0.5875,0.5875,2,0
 Component Sizing Information, WaterHeater:HeatPump:PumpedCondenser, ZONE4BHEATPUMPWATERHEATER, Condenser water flow rate [m3/s], 1.79480E-004
 Component Sizing Information, WaterHeater:HeatPump:PumpedCondenser, ZONE4BHEATPUMPWATERHEATER, Evaporator air flow rate [m3/s], 0.20140
 Component Sizing Information, PlantLoop, HOT WATER LOOP, Maximum Loop Flow Rate [m3/s], 2.74268E-004
 Component Sizing Information, PlantLoop, HOT WATER LOOP, Plant Loop Volume [m3], 3.29122E-002
 Component Sizing Information, Pump:VariableSpeed, HW CIRC PUMP, Design Flow Rate [m3/s], 2.74268E-004
 Component Sizing Information, Pump:VariableSpeed, HW CIRC PUMP, Design Power Consumption [W], 70.07198
 Component Sizing Information, WaterHeater:Stratified, HPWHPLANTTANK, Use Side Design Flow Rate [m3/s], 2.74268E-004
 Component Sizing Information, PlantLoop, CHILLED WATER LOOP, Maximum Loop Flow Rate [m3/s], 1.63434E-003
 Component Sizing Information, PlantLoop, CHILLED WATER LOOP, Plant Loop Volume [m3], 0.19612
 Component Sizing Information, Pump:VariableSpeed, CW CIRC PUMP, Design Flow Rate [m3/s], 1.63434E-003
 Component Sizing Information, Pump:VariableSpeed, CW CIRC PUMP, Design Power Consumption [W], 417.55337
 Component Sizing Information, Chiller:Electric, CENTRAL CHILLER, Design Size Nominal Capacity [W], 45757.21805
 Component Sizing Information, Chiller:Electric, CENTRAL CHILLER, Design Size Design Chilled Water Flow Rate [m3/s], 1.63434E-003
 Component Sizing Information, Chiller:Electric, CENTRAL CHILLER, Design Size Design Condenser Water Flow Rate [m3/s], 2.57664E-003
 Component Sizing Information, WaterHeater:Stratified, ZONE4BHPWHTANK, Use Side Design Flow Rate [m3/s], 3.79000E-003
 Component Sizing Information, CondenserLoop, CONDENSER WATER LOOP, Maximum Loop Flow Rate [m3/s], 2.57664E-003
 Component Sizing Information, CondenserLoop, CONDENSER WATER LOOP, Condenser Loop Volume [m3], 0.30920
 Component Sizing Information, Pump:VariableSpeed, COND CIRC PUMP, Design Flow Rate [m3/s], 2.57664E-003
 Component Sizing Information, Pump:VariableSpeed, COND CIRC PUMP, Design Power Consumption [W], 658.29731
 Component Sizing Information, CoolingTower:SingleSpeed, CENTRAL TOWER, Design Water Flow Rate [m3/s], 2.57664E-003
 Component Sizing Information, CoolingTower:SingleSpeed, CENTRAL TOWER, Fan Power at Design Air Flow Rate [W], 633.21298
 Component Sizing Information, CoolingTower:SingleSpeed, CENTRAL TOWER, Design Air Flow Rate [m3/s], 1.66852
 Component Sizing Information, CoolingTower:SingleSpeed, CENTRAL TOWER, U-Factor Times Area Value at Design Air Flow Rate [W/C], 3767.43075
! <Environment>,Environment Name,Environment Type, Start Date, End Date, Start DayOfWeek, Duration {#days}, Source:Start DayOfWeek,  Use Daylight Saving, Use Holidays, Apply Weekend Holiday Rule,  Use Rain Values, Use Snow Values, Sky Temperature Model
! <Environment:Special Days>, Special Day Name, Special Day Type, Source, Start Date, Duration {#days}
! <Environment:Daylight Saving>, Daylight Saving Indicator, Source, Start Date, End Date
! <Environment:WarmupDays>, NumberofWarmupDays
Environment,MIAMI INTL AP ANN HTG 99.6% CONDNS DB,SizingPeriod:DesignDay,01/21,01/21,WinterDesignDay,1,N/A,N/A,N/A,N/A,N/A,N/A,Clark and Allen
Environment:Daylight Saving,No,SizingPeriod:DesignDay
! <Environment:Design Day Data>, Max Dry-Bulb Temp {C}, Temp Range {dC}, Temp Range Ind Type, Hum Ind Type, Hum Ind Value at Max Temp, Hum Ind Units, Pressure {Pa}, Wind Direction {deg CW from N}, Wind Speed {m/s}, Clearness, Rain, Snow
! <Environment:Design Day Misc>,DayOfYear,ASHRAE A Coeff,ASHRAE B Coeff,ASHRAE C Coeff,Solar Constant-Annual Variation,Eq of Time {minutes}, Solar Declination Angle {deg}, Solar Model
Environment:Design Day Data,8.70,0.00,DefaultMultipliers,Wetbulb,8.70,{C},101217,340,3.8,0.00,No,No
Environment:Design Day Misc, 21,1229.0,0.1415,5.7310E-002,1.0,-11.15,-20.1,ASHRAEClearSky
Environment:WarmupDays,  6
! <Warmup Convergence Information>,Zone Name,Environment Type/Name,Average Warmup Temperature Difference {deltaC},Std Dev Warmup Temperature Difference {deltaC},Max Temperature Pass/Fail Convergence,Min Temperature Pass/Fail Convergence,Average Warmup Load Difference {W},Std Dev Warmup Load Difference {W},Heating Load Pass/Fail Convergence,Cooling Load Pass/Fail Convergence
 Warmup Convergence Information,PLENUM-1,SizingPeriod: MIAMI INTL AP ANN HTG 99.6% CONDNS DB,6.1444933808E-002,7.9809123758E-002,Pass,Pass,0.7406185223,5.4472847075,Pass,Pass
 Warmup Convergence Information,SPACE1-1,SizingPeriod: MIAMI INTL AP ANN HTG 99.6% CONDNS DB,2.9305641737E-002,8.1537243589E-002,Pass,Pass,0.1259215987,0.7604796048,Pass,Pass
 Warmup Convergence Information,SPACE2-1,SizingPeriod: MIAMI INTL AP ANN HTG 99.6% CONDNS DB,1.5051141360E-002,3.8596075979E-002,Pass,Pass,9.6241462978E-002,0.4632773444,Pass,Pass
 Warmup Convergence Information,SPACE3-1,SizingPeriod: MIAMI INTL AP ANN HTG 99.6% CONDNS DB,2.8363512875E-002,7.5089537346E-002,Pass,Pass,0.1132190136,0.6694275741,Pass,Pass
 Warmup Convergence Information,SPACE4-1,SizingPeriod: MIAMI INTL AP ANN HTG 99.6% CONDNS DB,0.2224736366,0.6003772999,Pass,Pass,0.4748106359,2.1354600761,Pass,Pass
 Warmup Convergence Information,SPACE5-1,SizingPeriod: MIAMI INTL AP ANN HTG 99.6% CONDNS DB,0.1015735673,0.1932053313,Pass,Pass,0.5794424450,2.1268058787,Pass,Pass
Environment,MIAMI INTL AP ANN CLG .4% CONDNS DB=>MWB,SizingPeriod:DesignDay,07/21,07/21,SummerDesignDay,1,N/A,N/A,N/A,N/A,N/A,N/A,Clark and Allen
Environment:Daylight Saving,No,SizingPeriod:DesignDay
Environment:Design Day Data,33.20,6.70,DefaultMultipliers,Wetbulb,25.30,{C},101217,140,4.5,1.00,No,No
Environment:Design Day Misc,202,1084.4,0.2082,0.1365,1.0,-6.23,20.6,ASHRAEClearSky
Environment:WarmupDays,  6
 Warmup Convergence Information,PLENUM-1,SizingPeriod: MIAMI INTL AP ANN CLG .4% CONDNS DB=>MWB,0.1246027513,0.1335894228,Pass,Pass,0.1976021073,0.6116588449,Pass,Pass
 Warmup Convergence Information,SPACE1-1,SizingPeriod: MIAMI INTL AP ANN CLG .4% CONDNS DB=>MWB,7.3358755300E-002,0.1432597133,Pass,Pass,6.0942908566E-002,0.1684139600,Pass,Pass
 Warmup Convergence Information,SPACE2-1,SizingPeriod: MIAMI INTL AP ANN CLG .4% CONDNS DB=>MWB,8.0430872135E-002,0.1242337064,Pass,Pass,5.7604515208E-002,0.1367256844,Pass,Pass
 Warmup Convergence Information,SPACE3-1,SizingPeriod: MIAMI INTL AP ANN CLG .4% CONDNS DB=>MWB,7.5167839606E-002,0.1161207566,Pass,Pass,6.1450775300E-002,0.1895174547,Pass,Pass
 Warmup Convergence Information,SPACE4-1,SizingPeriod: MIAMI INTL AP ANN CLG .4% CONDNS DB=>MWB,0.2985166662,0.7259040466,Pass,Pass,0.2742594654,1.2448591729,Pass,Pass
 Warmup Convergence Information,SPACE5-1,SizingPeriod: MIAMI INTL AP ANN CLG .4% CONDNS DB=>MWB,0.1229049409,0.2236457154,Pass,Pass,0.1737099274,0.7051421718,Pass,Pass
Environment,RUN PERIOD 1,WeatherFileRunPeriod,01/14/2014,01/14/2014,Tuesday,1,Use RunPeriod Specified Day,Yes,Yes,No,Yes,Yes,Clark and Allen
Environment:Daylight Saving,No,
Environment:WarmupDays,  6
 Warmup Convergence Information,PLENUM-1,RunPeriod: RUN PERIOD 1,0.1125236238,0.1324753447,Pass,Pass,0.2070561259,0.9972953868,Pass,Pass
 Warmup Convergence Information,SPACE1-1,RunPeriod: RUN PERIOD 1,0.1034192875,0.2268151569,Pass,Pass,0.2564027946,1.2003843072,Pass,Pass
 Warmup Convergence Information,SPACE2-1,RunPeriod: RUN PERIOD 1,0.1080716285,0.2430833742,Pass,Pass,0.2757153284,0.9618086347,Pass,Pass
 Warmup Convergence Information,SPACE3-1,RunPeriod: RUN PERIOD 1,0.1044371459,0.2374433983,Pass,Pass,0.2544440858,0.8893261491,Pass,Pass
 Warmup Convergence Information,SPACE4-1,RunPeriod: RUN PERIOD 1,0.3315250382,0.6939430729,Pass,Pass,0.3836632018,1.6626068358,Pass,Pass
 Warmup Convergence Information,SPACE5-1,RunPeriod: RUN PERIOD 1,0.1203267023,0.2397537506,Pass,Pass,0.1270385093,0.3342220204,Pass,Pass
Environment,RUN PERIOD 2,WeatherFileRunPeriod,07/07/2015,07/07/2015,Tuesday,1,Use RunPeriod Specified Day,Yes,Yes,No,Yes,Yes,Clark and Allen
Environment:Daylight Saving,No,
Environment:WarmupDays,  6
 Warmup Convergence Information,PLENUM-1,RunPeriod: RUN PERIOD 2,0.1275865316,0.1210631778,Pass,Pass,0.1715757066,0.6211988419,Pass,Pass
 Warmup Convergence Information,SPACE1-1,RunPeriod: RUN PERIOD 2,8.3136666150E-002,0.1381330211,Pass,Pass,0.5072156719,4.3340903192,Pass,Pass
 Warmup Convergence Information,SPACE2-1,RunPeriod: RUN PERIOD 2,8.4315317183E-002,0.1217530500,Pass,Pass,0.7272027643,6.5435822311,Pass,Pass
 Warmup Convergence Information,SPACE3-1,RunPeriod: RUN PERIOD 2,8.2940023361E-002,0.1046088426,Pass,Pass,0.5398897358,4.7174694818,Pass,Pass
 Warmup Convergence Information,SPACE4-1,RunPeriod: RUN PERIOD 2,0.4130748015,0.8899112282,Pass,Pass,7.0906751446,49.7830975627,Pass,Pass
 Warmup Convergence Information,SPACE5-1,RunPeriod: RUN PERIOD 2,0.1257552757,0.2361516276,Pass,Pass,0.9628996045,5.7757421741,Pass,Pass
! <Program Control Information:Threads/Parallel Sims>, Threading Supported,Maximum Number of Threads, Env Set Threads (OMP_NUM_THREADS), EP Env Set Threads (EP_OMP_NUM_THREADS), IDF Set Threads, Number of Threads Used (Interior Radiant Exchange), Number Nominal Surfaces, Number Parallel Sims
Program Control:Threads/Parallel Sims, No,1, N/A, N/A, N/A, N/A, N/A, N/A
End of Data
