  0
SECTION
  2
ENTITIES
999
DXF created from EnergyPlus
999
Program Version,EnergyPlus, Version 9.6.0-f420c06a69, YMD=2024.09.02 12:50
999
Polygon Action,ThickPolyline
999
Color Scheme,Default
999
Text - True North
  0
TEXT
  8
1
  6
Continuous
 62
  3
 10
      -11.65000
 20
      -12.25000
 30
        0.10000
 40
 .25
  1
True North
 41
 0.0
  7
MONOTXT
210
0.0
220
0.0
230
1.0
999
Text - Building Title
  0
TEXT
  8
1
  6
Continuous
 62
  3
 10
      -14.65000
 20
      -16.25000
 30
        0.10000
 40
 .4
  1
Building - Building
 41
 0.0
  7
MONOTXT
210
0.0
220
0.0
230
1.0
999
North Arrow Stem
  0
3DFACE
  8
1
 62
  3
 10
      -10.65000
 20
      -12.25000
 30
        0.10000
 11
      -10.65000
 21
      -12.25000
 31
        0.00000
 12
      -10.65000
 22
      -15.25000
 32
        0.00000
 13
      -10.65000
 23
      -15.25000
 33
        0.10000
999
North Arrow Head 1
  0
3DFACE
  8
1
 62
  3
 10
      -10.65000
 20
      -12.25000
 30
        0.10000
 11
      -10.65000
 21
      -12.25000
 31
        0.00000
 12
      -11.15000
 22
      -13.11602
 32
        0.00000
 13
      -11.15000
 23
      -13.11602
 33
        0.10000
999
North Arrow Head 2
  0
3DFACE
  8
1
 62
  3
 10
      -10.65000
 20
      -12.25000
 30
        0.10000
 11
      -10.65000
 21
      -12.25000
 31
        0.00000
 12
      -10.15000
 22
      -13.11602
 32
        0.00000
 13
      -10.15000
 23
      -13.11602
 33
        0.10000
999
North Arrow Side 1
  0
3DFACE
  8
1
 62
  3
 10
      -11.15000
 20
      -10.75000
 30
        0.10000
 11
      -11.15000
 21
      -10.75000
 31
        0.00000
 12
      -11.15000
 22
      -11.75000
 32
        0.00000
 13
      -11.15000
 23
      -11.75000
 33
        0.10000
999
North Arrow Side 2
  0
3DFACE
  8
1
 62
  3
 10
      -11.15000
 20
      -10.75000
 30
        0.10000
 11
      -11.15000
 21
      -10.75000
 31
        0.00000
 12
      -10.15000
 22
      -11.75000
 32
        0.00000
 13
      -10.15000
 23
      -11.75000
 33
        0.10000
999
North Arrow Side 3
  0
3DFACE
  8
1
 62
  3
 10
      -10.15000
 20
      -10.75000
 30
        0.10000
 11
      -10.15000
 21
      -10.75000
 31
        0.00000
 12
      -10.15000
 22
      -11.75000
 32
        0.00000
 13
      -10.15000
 23
      -11.75000
 33
        0.10000
999
Zone Names
999
Zone=1:PLENUM-1
999
Zone=2:SPACE1-1
999
Zone=3:SPACE2-1
999
Zone=4:SPACE3-1
999
Zone=5:SPACE4-1
999
Zone=6:SPACE5-1
999
PLENUM-1:WALL-1PF
  0
3DFACE
  8
PLENUM-1
 62
 43
 10
        0.00000
 20
        0.00000
 30
        3.00000
 11
        0.00000
 21
        0.00000
 31
        2.40000
 12
       26.41377
 22
      -15.25000
 32
        2.40000
 13
       26.41377
 23
      -15.25000
 33
        3.00000
999
PLENUM-1:WALL-1PR
  0
3DFACE
  8
PLENUM-1
 62
 43
 10
       26.41377
 20
      -15.25000
 30
        3.00000
 11
       26.41377
 21
      -15.25000
 31
        2.40000
 12
       34.01377
 22
       -2.08641
 32
        2.40000
 13
       34.01377
 23
       -2.08641
 33
        3.00000
999
PLENUM-1:WALL-1PB
  0
3DFACE
  8
PLENUM-1
 62
 43
 10
       34.01377
 20
       -2.08641
 30
        3.00000
 11
       34.01377
 21
       -2.08641
 31
        2.40000
 12
        7.60000
 22
       13.16359
 32
        2.40000
 13
        7.60000
 23
       13.16359
 33
        3.00000
999
PLENUM-1:WALL-1PL
  0
3DFACE
  8
PLENUM-1
 62
 43
 10
        7.60000
 20
       13.16359
 30
        3.00000
 11
        7.60000
 21
       13.16359
 31
        2.40000
 12
        0.00000
 22
        0.00000
 32
        2.40000
 13
        0.00000
 23
        0.00000
 33
        3.00000
999
PLENUM-1:C1-1P
  0
3DFACE
  8
PLENUM-1
 62
  8
 10
       25.05948
 20
      -10.19571
 30
        2.40000
 11
       26.41377
 21
      -15.25000
 31
        2.40000
 12
        0.00000
 22
        0.00000
 32
        2.40000
 13
        5.05429
 23
        1.35429
 33
        2.40000
999
PLENUM-1:C2-1P
  0
3DFACE
  8
PLENUM-1
 62
  8
 10
       29.00948
 20
       -3.35411
 30
        2.40000
 11
       34.01377
 21
       -2.08641
 31
        2.40000
 12
       26.41377
 22
      -15.25000
 32
        2.40000
 13
       25.05948
 23
      -10.19571
 33
        2.40000
999
PLENUM-1:C3-1P
  0
3DFACE
  8
PLENUM-1
 62
  8
 10
       29.00948
 20
       -3.35411
 30
        2.40000
 11
        9.00429
 21
        8.19589
 31
        2.40000
 12
        7.60000
 22
       13.16359
 32
        2.40000
 13
       34.01377
 23
       -2.08641
 33
        2.40000
999
PLENUM-1:C4-1P
  0
3DFACE
  8
PLENUM-1
 62
  8
 10
        5.05429
 20
        1.35429
 30
        2.40000
 11
        0.00000
 21
        0.00000
 31
        2.40000
 12
        7.60000
 22
       13.16359
 32
        2.40000
 13
        9.00429
 23
        8.19589
 33
        2.40000
999
PLENUM-1:C5-1P
  0
3DFACE
  8
PLENUM-1
 62
  8
 10
       29.00948
 20
       -3.35411
 30
        2.40000
 11
       25.05948
 21
      -10.19571
 31
        2.40000
 12
        5.05429
 22
        1.35429
 32
        2.40000
 13
        9.00429
 23
        8.19589
 33
        2.40000
999
PLENUM-1:TOP-1
  0
3DFACE
  8
PLENUM-1
 62
 15
 10
        7.60000
 20
       13.16359
 30
        3.00000
 11
        0.00000
 21
        0.00000
 31
        3.00000
 12
       26.41377
 22
      -15.25000
 32
        3.00000
 13
       34.01377
 23
       -2.08641
 33
        3.00000
999
SPACE1-1:FRONT-1
  0
3DFACE
  8
SPACE1-1
 62
 43
 10
        0.00000
 20
        0.00000
 30
        2.40000
 11
        0.00000
 21
        0.00000
 31
        0.00000
 12
       26.41377
 22
      -15.25000
 32
        0.00000
 13
       26.41377
 23
      -15.25000
 33
        2.40000
999
SPACE1-1:WF-1
  0
3DFACE
  8
SPACE1-1
 62
143
 10
        2.59808
 20
       -1.50000
 30
        2.10000
 11
        2.59808
 21
       -1.50000
 31
        0.90000
 12
       14.54923
 22
       -8.40000
 32
        0.90000
 13
       14.54923
 23
       -8.40000
 33
        2.10000
999
SPACE1-1:DF-1
  0
3DFACE
  8
SPACE1-1
 62
143
 10
       18.44634
 20
      -10.65000
 30
        2.10000
 11
       18.44634
 21
      -10.65000
 31
        0.00000
 12
       20.61140
 22
      -11.90000
 32
        0.00000
 13
       20.61140
 23
      -11.90000
 33
        2.10000
999
SPACE1-1:SB12
  0
3DFACE
  8
SPACE1-1
 62
 43
 10
       26.41377
 20
      -15.25000
 30
        2.40000
 11
       26.41377
 21
      -15.25000
 31
        0.00000
 12
       25.05948
 22
      -10.19571
 32
        0.00000
 13
       25.05948
 23
      -10.19571
 33
        2.40000
999
SPACE1-1:SB14
  0
3DFACE
  8
SPACE1-1
 62
 43
 10
        5.05429
 20
        1.35429
 30
        2.40000
 11
        5.05429
 21
        1.35429
 31
        0.00000
 12
        0.00000
 22
        0.00000
 32
        0.00000
 13
        0.00000
 23
        0.00000
 33
        2.40000
999
SPACE1-1:SB15
  0
3DFACE
  8
SPACE1-1
 62
 43
 10
       25.05948
 20
      -10.19571
 30
        2.40000
 11
       25.05948
 21
      -10.19571
 31
        0.00000
 12
        5.05429
 22
        1.35429
 32
        0.00000
 13
        5.05429
 23
        1.35429
 33
        2.40000
999
SPACE1-1:F1-1
  0
3DFACE
  8
SPACE1-1
 62
  8
 10
       25.05948
 20
      -10.19571
 30
        0.00000
 11
       26.41377
 21
      -15.25000
 31
        0.00000
 12
        0.00000
 22
        0.00000
 32
        0.00000
 13
        5.05429
 23
        1.35429
 33
        0.00000
999
SPACE1-1:C1-1
  0
3DFACE
  8
SPACE1-1
 62
 15
 10
        5.05429
 20
        1.35429
 30
        2.40000
 11
        0.00000
 21
        0.00000
 31
        2.40000
 12
       26.41377
 22
      -15.25000
 32
        2.40000
 13
       25.05948
 23
      -10.19571
 33
        2.40000
999
SPACE1-1:MAIN SOUTH OVERHANG
  0
3DFACE
  8
SPACE1-1
 62
 13
 10
       -0.65000
 20
       -1.12583
 30
        2.20000
 11
        0.00000
 21
        0.00000
 31
        2.20000
 12
       17.14730
 22
       -9.90000
 32
        2.20000
 13
       16.49730
 23
      -11.02583
 33
        2.20000
999
SPACE1-1:Mir-MAIN SOUTH OVERHANG
  0
3DFACE
  8
SPACE1-1
 62
 13
 10
       16.49730
 20
      -11.02583
 30
        2.20000
 11
       17.14730
 21
       -9.90000
 31
        2.20000
 12
        0.00000
 22
        0.00000
 32
        2.20000
 13
       -0.65000
 23
       -1.12583
 33
        2.20000
999
SPACE1-1:SOUTH DOOR OVERHANG
  0
3DFACE
  8
SPACE1-1
 62
 13
 10
       17.18653
 20
      -12.23205
 30
        2.60000
 11
       18.18653
 21
      -10.50000
 31
        2.60000
 12
       20.87121
 22
      -12.05000
 32
        2.60000
 13
       19.87121
 23
      -13.78205
 33
        2.60000
999
SPACE1-1:Mir-SOUTH DOOR OVERHANG
  0
3DFACE
  8
SPACE1-1
 62
 13
 10
       19.87121
 20
      -13.78205
 30
        2.60000
 11
       20.87121
 21
      -12.05000
 31
        2.60000
 12
       18.18653
 22
      -10.50000
 32
        2.60000
 13
       17.18653
 23
      -12.23205
 33
        2.60000
999
SPACE2-1:RIGHT-1
  0
3DFACE
  8
SPACE2-1
 62
 43
 10
       26.41377
 20
      -15.25000
 30
        2.40000
 11
       26.41377
 21
      -15.25000
 31
        0.00000
 12
       34.01377
 22
       -2.08641
 32
        0.00000
 13
       34.01377
 23
       -2.08641
 33
        2.40000
999
SPACE2-1:WR-1
  0
3DFACE
  8
SPACE2-1
 62
143
 10
       28.31377
 20
      -11.95910
 30
        2.10000
 11
       28.31377
 21
      -11.95910
 31
        0.90000
 12
       32.11377
 22
       -5.37731
 32
        0.90000
 13
       32.11377
 23
       -5.37731
 33
        2.10000
999
SPACE2-1:SB21
  0
3DFACE
  8
SPACE2-1
 62
 43
 10
       25.05948
 20
      -10.19571
 30
        2.40000
 11
       25.05948
 21
      -10.19571
 31
        0.00000
 12
       26.41377
 22
      -15.25000
 32
        0.00000
 13
       26.41377
 23
      -15.25000
 33
        2.40000
999
SPACE2-1:SB23
  0
3DFACE
  8
SPACE2-1
 62
 43
 10
       34.01377
 20
       -2.08641
 30
        2.40000
 11
       34.01377
 21
       -2.08641
 31
        0.00000
 12
       29.00948
 22
       -3.35411
 32
        0.00000
 13
       29.00948
 23
       -3.35411
 33
        2.40000
999
SPACE2-1:SB25
  0
3DFACE
  8
SPACE2-1
 62
 43
 10
       29.00948
 20
       -3.35411
 30
        2.40000
 11
       29.00948
 21
       -3.35411
 31
        0.00000
 12
       25.05948
 22
      -10.19571
 32
        0.00000
 13
       25.05948
 23
      -10.19571
 33
        2.40000
999
SPACE2-1:F2-1
  0
3DFACE
  8
SPACE2-1
 62
  8
 10
       29.00948
 20
       -3.35411
 30
        0.00000
 11
       34.01377
 21
       -2.08641
 31
        0.00000
 12
       26.41377
 22
      -15.25000
 32
        0.00000
 13
       25.05948
 23
      -10.19571
 33
        0.00000
999
SPACE2-1:C2-1
  0
3DFACE
  8
SPACE2-1
 62
 15
 10
       25.05948
 20
      -10.19571
 30
        2.40000
 11
       26.41377
 21
      -15.25000
 31
        2.40000
 12
       34.01377
 22
       -2.08641
 32
        2.40000
 13
       29.00948
 23
       -3.35411
 33
        2.40000
999
SPACE3-1:BACK-1
  0
3DFACE
  8
SPACE3-1
 62
 43
 10
       34.01377
 20
       -2.08641
 30
        2.40000
 11
       34.01377
 21
       -2.08641
 31
        0.00000
 12
        7.60000
 22
       13.16359
 32
        0.00000
 13
        7.60000
 23
       13.16359
 33
        2.40000
999
SPACE3-1:WB-1
  0
3DFACE
  8
SPACE3-1
 62
143
 10
       31.32910
 20
       -0.53641
 30
        2.10000
 11
       31.32910
 21
       -0.53641
 31
        0.90000
 12
       19.46455
 22
        6.31359
 32
        0.90000
 13
       19.46455
 23
        6.31359
 33
        2.10000
999
SPACE3-1:DB-1
  0
3DFACE
  8
SPACE3-1
 62
143
 10
       15.48083
 20
        8.61359
 30
        2.10000
 11
       15.48083
 21
        8.61359
 31
        0.00000
 12
       13.66218
 22
        9.66359
 32
        0.00000
 13
       13.66218
 23
        9.66359
 33
        2.10000
999
SPACE3-1:SB32
  0
3DFACE
  8
SPACE3-1
 62
 43
 10
       29.00948
 20
       -3.35411
 30
        2.40000
 11
       29.00948
 21
       -3.35411
 31
        0.00000
 12
       34.01377
 22
       -2.08641
 32
        0.00000
 13
       34.01377
 23
       -2.08641
 33
        2.40000
999
SPACE3-1:SB34
  0
3DFACE
  8
SPACE3-1
 62
 43
 10
        7.60000
 20
       13.16359
 30
        2.40000
 11
        7.60000
 21
       13.16359
 31
        0.00000
 12
        9.00429
 22
        8.19589
 32
        0.00000
 13
        9.00429
 23
        8.19589
 33
        2.40000
999
SPACE3-1:SB35
  0
3DFACE
  8
SPACE3-1
 62
 43
 10
        9.00429
 20
        8.19589
 30
        2.40000
 11
        9.00429
 21
        8.19589
 31
        0.00000
 12
       29.00948
 22
       -3.35411
 32
        0.00000
 13
       29.00948
 23
       -3.35411
 33
        2.40000
999
SPACE3-1:F3-1
  0
3DFACE
  8
SPACE3-1
 62
  8
 10
       29.00948
 20
       -3.35411
 30
        0.00000
 11
        9.00429
 21
        8.19589
 31
        0.00000
 12
        7.60000
 22
       13.16359
 32
        0.00000
 13
       34.01377
 23
       -2.08641
 33
        0.00000
999
SPACE3-1:C3-1
  0
3DFACE
  8
SPACE3-1
 62
 15
 10
       34.01377
 20
       -2.08641
 30
        2.40000
 11
        7.60000
 21
       13.16359
 31
        2.40000
 12
        9.00429
 22
        8.19589
 32
        2.40000
 13
       29.00948
 23
       -3.35411
 33
        2.40000
999
SPACE4-1:LEFT-1
  0
3DFACE
  8
SPACE4-1
 62
 43
 10
        7.60000
 20
       13.16359
 30
        2.40000
 11
        7.60000
 21
       13.16359
 31
        0.00000
 12
        0.00000
 22
        0.00000
 32
        0.00000
 13
        0.00000
 23
        0.00000
 33
        2.40000
999
SPACE4-1:WL-1
  0
3DFACE
  8
SPACE4-1
 62
143
 10
        5.70000
 20
        9.87269
 30
        2.10000
 11
        5.70000
 21
        9.87269
 31
        0.90000
 12
        1.90000
 22
        3.29090
 32
        0.90000
 13
        1.90000
 23
        3.29090
 33
        2.10000
999
SPACE4-1:SB41
  0
3DFACE
  8
SPACE4-1
 62
 43
 10
        0.00000
 20
        0.00000
 30
        2.40000
 11
        0.00000
 21
        0.00000
 31
        0.00000
 12
        5.05429
 22
        1.35429
 32
        0.00000
 13
        5.05429
 23
        1.35429
 33
        2.40000
999
SPACE4-1:SB43
  0
3DFACE
  8
SPACE4-1
 62
 43
 10
        9.00429
 20
        8.19589
 30
        2.40000
 11
        9.00429
 21
        8.19589
 31
        0.00000
 12
        7.60000
 22
       13.16359
 32
        0.00000
 13
        7.60000
 23
       13.16359
 33
        2.40000
999
SPACE4-1:SB45
  0
3DFACE
  8
SPACE4-1
 62
 43
 10
        5.05429
 20
        1.35429
 30
        2.40000
 11
        5.05429
 21
        1.35429
 31
        0.00000
 12
        9.00429
 22
        8.19589
 32
        0.00000
 13
        9.00429
 23
        8.19589
 33
        2.40000
999
SPACE4-1:F4-1
  0
3DFACE
  8
SPACE4-1
 62
  8
 10
        5.05429
 20
        1.35429
 30
        0.00000
 11
        0.00000
 21
        0.00000
 31
        0.00000
 12
        7.60000
 22
       13.16359
 32
        0.00000
 13
        9.00429
 23
        8.19589
 33
        0.00000
999
SPACE4-1:C4-1
  0
3DFACE
  8
SPACE4-1
 62
 15
 10
        9.00429
 20
        8.19589
 30
        2.40000
 11
        7.60000
 21
       13.16359
 31
        2.40000
 12
        0.00000
 22
        0.00000
 32
        2.40000
 13
        5.05429
 23
        1.35429
 33
        2.40000
999
SPACE5-1:SB51
  0
3DFACE
  8
SPACE5-1
 62
 43
 10
        5.05429
 20
        1.35429
 30
        2.40000
 11
        5.05429
 21
        1.35429
 31
        0.00000
 12
       25.05948
 22
      -10.19571
 32
        0.00000
 13
       25.05948
 23
      -10.19571
 33
        2.40000
999
SPACE5-1:SB52
  0
3DFACE
  8
SPACE5-1
 62
 43
 10
       25.05948
 20
      -10.19571
 30
        2.40000
 11
       25.05948
 21
      -10.19571
 31
        0.00000
 12
       29.00948
 22
       -3.35411
 32
        0.00000
 13
       29.00948
 23
       -3.35411
 33
        2.40000
999
SPACE5-1:SB53
  0
3DFACE
  8
SPACE5-1
 62
 43
 10
       29.00948
 20
       -3.35411
 30
        2.40000
 11
       29.00948
 21
       -3.35411
 31
        0.00000
 12
        9.00429
 22
        8.19589
 32
        0.00000
 13
        9.00429
 23
        8.19589
 33
        2.40000
999
SPACE5-1:SB54
  0
3DFACE
  8
SPACE5-1
 62
 43
 10
        9.00429
 20
        8.19589
 30
        2.40000
 11
        9.00429
 21
        8.19589
 31
        0.00000
 12
        5.05429
 22
        1.35429
 32
        0.00000
 13
        5.05429
 23
        1.35429
 33
        2.40000
999
SPACE5-1:F5-1
  0
3DFACE
  8
SPACE5-1
 62
  8
 10
       29.00948
 20
       -3.35411
 30
        0.00000
 11
       25.05948
 21
      -10.19571
 31
        0.00000
 12
        5.05429
 22
        1.35429
 32
        0.00000
 13
        9.00429
 23
        8.19589
 33
        0.00000
999
SPACE5-1:C5-1
  0
3DFACE
  8
SPACE5-1
 62
 15
 10
        9.00429
 20
        8.19589
 30
        2.40000
 11
        5.05429
 21
        1.35429
 31
        2.40000
 12
       25.05948
 22
      -10.19571
 32
        2.40000
 13
       29.00948
 23
       -3.35411
 33
        2.40000
  0
ENDSEC
  0
EOF
