Program Version,EnergyPlus, Version 9.6.0-f420c06a69, YMD=2024.09.02 12:50,
   ************* Beginning Zone Sizing Calculations
   ************* Beginning System Sizing Calculations
   ** Warning ** Check input. Pump nominal power or motor efficiency is set to 0, for pump=MAINS PRESSURE
   ************* Testing Individual Branch Integrity
   ************* All Branches passed integrity testing
   ************* Testing Individual Supply Air Path Integrity
   ************* All Supply Air Paths passed integrity testing
   ************* Testing Individual Return Air Path Integrity
   ************* All Return Air Paths passed integrity testing
   ************* No node connection errors were found.
   ************* Beginning Simulation
   ** Warning ** CalcEquipmentFlowRates: Target water temperature is greater than the hot water temperature
   **   ~~~   **  During Warmup, Environment=MIAMI INTL AP ANN HTG 99.6% CONDNS DB, at Simulation time=01/21 05:00 - 05:15
   **   ~~~   ** ...target water temperature       = 60.000 C
   **   ~~~   ** ...hot water temperature       = 51.667 C
   **   ~~~   ** ...Note: target water temperature should be less than or equal to the hot water temperature
   **   ~~~   ** ...Target water temperature should be less than or equal to the hot water temperature. Verify temperature setpoints and schedules.
   ** Warning ** SolveAirLoopControllers: Maximum iterations (50) exceeded for VAV SYS 1, CENTRAL COOLING COIL CONTOLLER 1, at MIAMI INTL AP ANN CLG .4% CONDNS DB=>MWB, 07/21 20:28 - 20:30
   ** Warning ** SolveAirLoopControllers: Maximum iterations (50) exceeded for VAV SYS 1, CENTRAL COOLING COIL CONTOLLER 1, at MIAMI INTL AP ANN CLG .4% CONDNS DB=>MWB, 07/21 20:45 - 21:00
   ** Warning ** SolveAirLoopControllers: Maximum iterations (50) exceeded for VAV SYS 1, CENTRAL COOLING COIL CONTOLLER 1, at RUN PERIOD 2, 07/07 07:38 - 07:41
   ************* Simulation Error Summary *************
   ************* There are 1 unused schedules in input.
   ************* There are 1 unused week schedules in input.
   ************* There are 1 unused day schedules in input.
   ************* Use Output:Diagnostics,DisplayUnusedSchedules; to see them.
   *************
   ************* ===== Recurring Error Summary =====
   ************* The following recurring error messages occurred.
   *************
   *************  ** Warning ** SHOWERS" - Target water temperature should be less than or equal to the hot water temperature error continues...
   *************  **   ~~~   **   This error occurred 19919 total times;
   *************  **   ~~~   **   during Warmup 17167 times;
   *************  **   ~~~   **   during Sizing 0 times.
   *************  **   ~~~   **   Max=59.254367  Min=7.156259
   *************
   ************* EnergyPlus Warmup Error Summary. During Warmup: 1 Warning; 0 Severe Errors.
   ************* EnergyPlus Sizing Error Summary. During Sizing: 0 Warning; 0 Severe Errors.
   ************* EnergyPlus Completed Successfully-- 19924 Warning; 0 Severe Errors; Elapsed Time=00hr 00min  8.43sec
