Program Version,EnergyPlus, Version 9.6.0-f420c06a69, YMD=2024.09.02 12:50,
Var Type (reported time step),Var Report Type,Variable Name [Units]
Zone,Meter,Electricity:Facility [J]
Zone,Meter,Electricity:Building [J]
Zone,Meter,Electricity:Zone:SPACE1-1 [J]
Zone,Meter,Electricity:SpaceType:GENERAL [J]
Zone,Meter,InteriorLights:Electricity [J]
Zone,Meter,InteriorLights:Electricity:Zone:SPACE1-1 [J]
Zone,Meter,InteriorLights:Electricity:SpaceType:GENERAL [J]
Zone,Meter,GeneralLights:InteriorLights:Electricity [J]
Zone,Meter,GeneralLights:InteriorLights:Electricity:Zone:SPACE1-1 [J]
Zone,Meter,GeneralLights:InteriorLights:Electricity:SpaceType:GENERAL [J]
Zone,Meter,Electricity:Zone:SPACE2-1 [J]
Zone,Meter,InteriorLights:Electricity:Zone:SPACE2-1 [J]
Zone,Meter,GeneralLights:InteriorLights:Electricity:Zone:SPACE2-1 [J]
Zone,Meter,Electricity:Zone:SPACE3-1 [J]
Zone,Meter,InteriorLights:Electricity:Zone:SPACE3-1 [J]
Zone,Meter,GeneralLights:InteriorLights:Electricity:Zone:SPACE3-1 [J]
Zone,Meter,Electricity:Zone:SPACE4-1 [J]
Zone,Meter,InteriorLights:Electricity:Zone:SPACE4-1 [J]
Zone,Meter,GeneralLights:InteriorLights:Electricity:Zone:SPACE4-1 [J]
Zone,Meter,Electricity:Zone:SPACE5-1 [J]
Zone,Meter,InteriorLights:Electricity:Zone:SPACE5-1 [J]
Zone,Meter,GeneralLights:InteriorLights:Electricity:Zone:SPACE5-1 [J]
Zone,Meter,InteriorEquipment:Electricity [J]
Zone,Meter,InteriorEquipment:Electricity:Zone:SPACE1-1 [J]
Zone,Meter,InteriorEquipment:Electricity:SpaceType:GENERAL [J]
Zone,Meter,General:InteriorEquipment:Electricity [J]
Zone,Meter,General:InteriorEquipment:Electricity:Zone:SPACE1-1 [J]
Zone,Meter,General:InteriorEquipment:Electricity:SpaceType:GENERAL [J]
Zone,Meter,InteriorEquipment:Electricity:Zone:SPACE2-1 [J]
Zone,Meter,General:InteriorEquipment:Electricity:Zone:SPACE2-1 [J]
Zone,Meter,InteriorEquipment:Electricity:Zone:SPACE3-1 [J]
Zone,Meter,General:InteriorEquipment:Electricity:Zone:SPACE3-1 [J]
Zone,Meter,InteriorEquipment:Electricity:Zone:SPACE4-1 [J]
Zone,Meter,General:InteriorEquipment:Electricity:Zone:SPACE4-1 [J]
Zone,Meter,InteriorEquipment:Electricity:Zone:SPACE5-1 [J]
Zone,Meter,General:InteriorEquipment:Electricity:Zone:SPACE5-1 [J]
Zone,Meter,EnergyTransfer:Facility [J]
Zone,Meter,EnergyTransfer:HVAC [J]
Zone,Meter,CoolingCoils:EnergyTransfer [J]
Zone,Meter,Electricity:Plant [J]
Zone,Meter,WaterSystems:Electricity [J]
Zone,Meter,Electricity:HVAC [J]
Zone,Meter,Fans:Electricity [J]
Zone,Meter,General:Fans:Electricity [J]
Zone,Meter,EnergyTransfer:Building [J]
Zone,Meter,EnergyTransfer:Zone:PLENUM-1 [J]
Zone,Meter,Heating:EnergyTransfer [J]
Zone,Meter,Heating:EnergyTransfer:Zone:PLENUM-1 [J]
Zone,Meter,General:Heating:EnergyTransfer [J]
Zone,Meter,General:Heating:EnergyTransfer:Zone:PLENUM-1 [J]
Zone,Meter,Cooling:EnergyTransfer [J]
Zone,Meter,Cooling:EnergyTransfer:Zone:PLENUM-1 [J]
Zone,Meter,General:Cooling:EnergyTransfer [J]
Zone,Meter,General:Cooling:EnergyTransfer:Zone:PLENUM-1 [J]
Zone,Meter,EnergyTransfer:Zone:SPACE1-1 [J]
Zone,Meter,Heating:EnergyTransfer:Zone:SPACE1-1 [J]
Zone,Meter,General:Heating:EnergyTransfer:Zone:SPACE1-1 [J]
Zone,Meter,Cooling:EnergyTransfer:Zone:SPACE1-1 [J]
Zone,Meter,General:Cooling:EnergyTransfer:Zone:SPACE1-1 [J]
Zone,Meter,EnergyTransfer:Zone:SPACE2-1 [J]
Zone,Meter,Heating:EnergyTransfer:Zone:SPACE2-1 [J]
Zone,Meter,General:Heating:EnergyTransfer:Zone:SPACE2-1 [J]
Zone,Meter,Cooling:EnergyTransfer:Zone:SPACE2-1 [J]
Zone,Meter,General:Cooling:EnergyTransfer:Zone:SPACE2-1 [J]
Zone,Meter,EnergyTransfer:Zone:SPACE3-1 [J]
Zone,Meter,Heating:EnergyTransfer:Zone:SPACE3-1 [J]
Zone,Meter,General:Heating:EnergyTransfer:Zone:SPACE3-1 [J]
Zone,Meter,Cooling:EnergyTransfer:Zone:SPACE3-1 [J]
Zone,Meter,General:Cooling:EnergyTransfer:Zone:SPACE3-1 [J]
Zone,Meter,EnergyTransfer:Zone:SPACE4-1 [J]
Zone,Meter,Heating:EnergyTransfer:Zone:SPACE4-1 [J]
Zone,Meter,General:Heating:EnergyTransfer:Zone:SPACE4-1 [J]
Zone,Meter,Cooling:EnergyTransfer:Zone:SPACE4-1 [J]
Zone,Meter,General:Cooling:EnergyTransfer:Zone:SPACE4-1 [J]
Zone,Meter,EnergyTransfer:Zone:SPACE5-1 [J]
Zone,Meter,Heating:EnergyTransfer:Zone:SPACE5-1 [J]
Zone,Meter,General:Heating:EnergyTransfer:Zone:SPACE5-1 [J]
Zone,Meter,Cooling:EnergyTransfer:Zone:SPACE5-1 [J]
Zone,Meter,General:Cooling:EnergyTransfer:Zone:SPACE5-1 [J]
Zone,Meter,PlantLoopHeatingDemand:Facility [J]
Zone,Meter,PlantLoopHeatingDemand:Plant [J]
Zone,Meter,WaterSystems:PlantLoopHeatingDemand [J]
Zone,Meter,General:WaterSystems:PlantLoopHeatingDemand [J]
Zone,Meter,ElectricityPurchased:Facility [J]
Zone,Meter,ElectricityPurchased:Plant [J]
Zone,Meter,Cogeneration:ElectricityPurchased [J]
Zone,Meter,General:Cogeneration:ElectricityPurchased [J]
Zone,Meter,ElectricitySurplusSold:Facility [J]
Zone,Meter,ElectricitySurplusSold:Plant [J]
Zone,Meter,Cogeneration:ElectricitySurplusSold [J]
Zone,Meter,General:Cogeneration:ElectricitySurplusSold [J]
Zone,Meter,ElectricityNet:Facility [J]
Zone,Meter,ElectricityNet:Plant [J]
Zone,Meter,Cogeneration:ElectricityNet [J]
Zone,Meter,General:Cogeneration:ElectricityNet [J]
Zone,Meter,HeatingCoils:EnergyTransfer [J]
Zone,Meter,PlantLoopHeatingDemand:HVAC [J]
Zone,Meter,HeatingCoils:PlantLoopHeatingDemand [J]
Zone,Meter,PlantLoopCoolingDemand:Facility [J]
Zone,Meter,PlantLoopCoolingDemand:HVAC [J]
Zone,Meter,CoolingCoils:PlantLoopCoolingDemand [J]
Zone,Meter,General:WaterSystems:Electricity [J]
Zone,Meter,Water:Facility [m3]
Zone,Meter,Water:Plant [m3]
Zone,Meter,WaterSystems:Water [m3]
Zone,Meter,General:WaterSystems:Water [m3]
Zone,Meter,MainsWater:Facility [m3]
Zone,Meter,MainsWater:Plant [m3]
Zone,Meter,WaterSystems:MainsWater [m3]
Zone,Meter,General:WaterSystems:MainsWater [m3]
Zone,Meter,Water Heater Parasitic:WaterSystems:Electricity [J]
Zone,Meter,Domestic Hot Water:WaterSystems:Water [m3]
Zone,Meter,Domestic Hot Water:WaterSystems:MainsWater [m3]
Zone,Meter,EnergyTransfer:Plant [J]
Zone,Meter,WaterSystems:EnergyTransfer [J]
Zone,Meter,Domestic Hot Water:WaterSystems:EnergyTransfer [J]
Zone,Meter,Cooling:Electricity [J]
Zone,Meter,General:Cooling:Electricity [J]
Zone,Meter,Chillers:EnergyTransfer [J]
Zone,Meter,HeatRejection:EnergyTransfer [J]
Zone,Meter,General:HeatRejection:EnergyTransfer [J]
Zone,Meter,HeatRejection:Electricity [J]
Zone,Meter,General:HeatRejection:Electricity [J]
Zone,Meter,HeatRejection:Water [m3]
Zone,Meter,General:HeatRejection:Water [m3]
Zone,Meter,HeatRejection:MainsWater [m3]
Zone,Meter,General:HeatRejection:MainsWater [m3]
Zone,Meter,Pumps:Electricity [J]
Zone,Meter,General:Pumps:Electricity [J]
Zone,Meter,Carbon Equivalent:Facility [kg]
Zone,Meter,CarbonEquivalentEmissions:Carbon Equivalent [kg]
