Program Version,EnergyPlus, Version 9.6.0-f420c06a69, YMD=2024.09.02 23:05
! This file shows details about the branches, nodes, and other
! elements of the flow connections.
! This file is intended for use in "debugging" potential problems
! that may also be detected by the program, but may be more easily
! identified by "eye".
! This file is also intended to support software which draws a
! schematic diagram of the HVAC system.
! ===============================================================
! #Nodes,<Number of Unique Nodes>
 #Nodes,17
! <Node>,<NodeNumber>,<Node Name>,<Node Fluid Type>,<# Times Node Referenced After Definition>
 Node,1,WATER HEATER USE LOOP INLET NODE,Water,2
 Node,2,DHW PUMP OUTLET NODE,Water,1
 Node,3,WATER HEATER USE INLET NODE,Water,2
 Node,4,WATER HEATER USE OUTLET NODE,Water,2
 Node,5,WATER HEATER USE OUTLET PIPE INLET NODE,Water,1
 Node,6,WATER HEATER USE LOOP OUTLET NODE,Water,4
 Node,7,DEMAND INLET NODE,Water,2
 Node,8,DEMAND PIPE-DHW NODE,Water,1
 Node,9,DOMESTIC HOT WATER INLET NODE,Water,1
 Node,10,DOMESTIC HOT WATER OUTLET NODE,Water,1
 Node,11,DEMAND DHW-PIPE NODE,Water,1
 Node,12,DEMAND OUTLET NODE,Water,2
 Node,13,HPPLANTAIRINLETNODE,Air,2
 Node,14,HPPLANTWATERINLETNODE,Water,2
 Node,15,HPPLANTWATEROUTLETNODE,Water,2
 Node,16,HPPLANTAIROUTLETNODE,Air,1
 Node,17,HPPLANTFANAIROUTLETNODE,Air,1
! ===============================================================
! <#Branch Lists>,<Number of Branch Lists>
 #Branch Lists,2
! <Branch List>,<Branch List Count>,<Branch List Name>,<Loop Name>,<Loop Type>,<Number of Branches>
! <Branch>,<Branch Count>,<Branch Name>,<Loop Name>,<Loop Type>,<Branch Inlet Node Name>,<Branch Outlet Node Name>
 Branch List,1,WATER HEATER USE BRANCHES,DHW LOOP,Plant Supply,3
   Branch,1,WATER HEATER USE INLET BRANCH,DHW LOOP,Plant Supply,WATER HEATER USE LOOP INLET NODE,DHW PUMP OUTLET NODE
   Branch,2,WATER HEATER USE BRANCH,DHW LOOP,Plant Supply,WATER HEATER USE INLET NODE,WATER HEATER USE OUTLET NODE
   Branch,3,WATER HEATER USE OUTLET BRANCH,DHW LOOP,Plant Supply,WATER HEATER USE OUTLET PIPE INLET NODE,WATER HEATER USE LOOP OUTLET NODE
 Branch List,2,DEMAND BRANCHES,DHW LOOP,Plant Demand,3
   Branch,1,DEMAND INLET BRANCH,DHW LOOP,Plant Demand,DEMAND INLET NODE,DEMAND PIPE-DHW NODE
   Branch,2,DOMESTIC HOT WATER BRANCH,DHW LOOP,Plant Demand,DOMESTIC HOT WATER INLET NODE,DOMESTIC HOT WATER OUTLET NODE
   Branch,3,DEMAND OUTLET BRANCH,DHW LOOP,Plant Demand,DEMAND DHW-PIPE NODE,DEMAND OUTLET NODE
! ===============================================================
! <#Supply Air Paths>,<Number of Supply Air Paths>
 #Supply Air Paths,0
! <Supply Air Path>,<Supply Air Path Count>,<Supply Air Path Name>,<AirLoopHVAC Name>
! <#Components on Supply Air Path>,<Number of Components>
! <Supply Air Path Component>,<Component Count>,<Component Type>,<Component Name>,<AirLoopHVAC Name>
! <#Outlet Nodes on Supply Air Path Component>,<Number of Nodes>
! <Supply Air Path Component Nodes>,<Node Count>,<Component Type>,<Component Name>,<Inlet Node Name>,<Outlet Node Name>,<AirLoopHVAC Name>
! ===============================================================
! <#Return Air Paths>,<Number of Return Air Paths>
 #Return Air Paths,0
! <Return Air Path>,<Return Air Path Count>,<Return Air Path Name>,<AirLoopHVAC Name>
! <#Components on Return Air Path>,<Number of Components>
! <Return Air Path Component>,<Component Count>,<Component Type>,<Component Name>,<AirLoopHVAC Name>
! <#Inlet Nodes on Return Air Path Component>,<Number of Nodes>
! <Return Air Path Component Nodes>,<Node Count>,<Component Type>,<Component Name>,<Inlet Node Name>,<Outlet Node Name>,<AirLoopHVAC Name>
! ===============================================================
! #Outdoor Air Nodes,<Number of Outdoor Air Nodes>
 #Outdoor Air Nodes,1
! <Outdoor Air Node>,<NodeNumber>,<Node Name>
 Outdoor Air Node,13,HPPLANTAIRINLETNODE
! ===============================================================
! <#Component Sets>,<Number of Component Sets>
 #Component Sets,10
! <Component Set>,<Component Set Count>,<Parent Object Type>,<Parent Object Name>,<Component Type>,<Component Name>,<Inlet Node ID>,<Outlet Node ID>,<Description>
 Component Set,1,BRANCH,WATER HEATER USE INLET BRANCH,PUMP:VARIABLESPEED,DHW PUMP,WATER HEATER USE LOOP INLET NODE,DHW PUMP OUTLET NODE,Water Nodes
 Component Set,2,BRANCH,WATER HEATER USE BRANCH,WATERHEATER:HEATPUMP:PUMPEDCONDENSER,PLANTHEATPUMPWATERHEATER,WATER HEATER USE INLET NODE,WATER HEATER USE OUTLET NODE,Water Nodes
 Component Set,3,BRANCH,WATER HEATER USE OUTLET BRANCH,PIPE:ADIABATIC,WATER HEATER USE OUTLET PIPE,WATER HEATER USE OUTLET PIPE INLET NODE,WATER HEATER USE LOOP OUTLET NODE,Pipe Nodes
 Component Set,4,BRANCH,DEMAND INLET BRANCH,PIPE:ADIABATIC,DEMAND INLET PIPE,DEMAND INLET NODE,DEMAND PIPE-DHW NODE,Pipe Nodes
 Component Set,5,BRANCH,DOMESTIC HOT WATER BRANCH,WATERUSE:CONNECTIONS,DOMESTIC HOT WATER,DOMESTIC HOT WATER INLET NODE,DOMESTIC HOT WATER OUTLET NODE,DHW Nodes
 Component Set,6,BRANCH,DEMAND OUTLET BRANCH,PIPE:ADIABATIC,DEMAND OUTLET PIPE,DEMAND DHW-PIPE NODE,DEMAND OUTLET NODE,Pipe Nodes
 Component Set,7,WATERHEATER:HEATPUMP:PUMPEDCONDENSER,PLANTHEATPUMPWATERHEATER,COIL:WATERHEATING:AIRTOWATERHEATPUMP:PUMPED,HPWHPLANTDXCOIL,HPPLANTAIRINLETNODE,HPPLANTAIROUTLETNODE,Air Nodes
 Component Set,8,WATERHEATER:HEATPUMP:PUMPEDCONDENSER,PLANTHEATPUMPWATERHEATER,COIL:WATERHEATING:AIRTOWATERHEATPUMP:PUMPED,HPWHPLANTDXCOIL,HPPLANTWATERINLETNODE,HPPLANTWATEROUTLETNODE,HPWH To Coil
 Component Set,9,WATERHEATER:HEATPUMP:PUMPEDCONDENSER,PLANTHEATPUMPWATERHEATER,FAN:SYSTEMMODEL,HPWHPLANTFAN,HPPLANTAIROUTLETNODE,HPPLANTFANAIROUTLETNODE,Air Nodes
 Component Set,10,WATERHEATER:HEATPUMP:PUMPEDCONDENSER,PLANTHEATPUMPWATERHEATER,WATERHEATER:STRATIFIED,WATER HEATER TANK,HPPLANTWATEROUTLETNODE,HPPLANTWATERINLETNODE,HPWH To Tank
! ===============================================================
! <# Plant Loops>,<Number of Plant Loops>
 #Plant Loops,1
! <Plant Loop>,<Plant Loop Name>,<Loop Type>,<Inlet Node Name>,<Outlet Node Name>,<Branch List>,<Connector List>
! <Plant Loop Connector>,<Connector Type>,<Connector Name>,<Loop Name>,<Loop Type>,<Number of Inlets/Outlets>
! <Plant Loop Connector Branches>,<Connector Node Count>,<Connector Type>,<Connector Name>,<Inlet Branch>,<Outlet Branch>,<Loop Name>,<Loop Type>
! <Plant Loop Connector Nodes>,<Connector Node Count>,<Connector Type>,<Connector Name>,<Inlet Node>,<Outlet Node>,<Loop Name>,<Loop Type>
! <Plant Loop Supply Connection>,<Plant Loop Name>,<Supply Side Outlet Node Name>,<Demand Side Inlet Node Name>
! <Plant Loop Return Connection>,<Plant Loop Name>,<Demand Side Outlet Node Name>,<Supply Side Inlet Node Name>
 Plant Loop,DHW LOOP,Demand,DEMAND INLET NODE,DEMAND OUTLET NODE,DEMAND BRANCHES,DEMAND CONNECTORS
   Plant Loop Connector,Splitter,DEMAND SPLITTER,DHW LOOP,Demand,1
     Plant Loop Connector Branches,1,Splitter,DEMAND SPLITTER,DEMAND INLET BRANCH,DOMESTIC HOT WATER BRANCH,DHW LOOP,Demand
     Plant Loop Connector Nodes,   1,Splitter,DEMAND SPLITTER,DEMAND PIPE-DHW NODE,DOMESTIC HOT WATER INLET NODE,DHW LOOP,Demand
   Plant Loop Connector,Mixer,DEMAND MIXER,DHW LOOP,Demand,1
     Plant Loop Connector Branches,1,Mixer,DEMAND MIXER,DOMESTIC HOT WATER BRANCH,DEMAND OUTLET BRANCH,DHW LOOP,Demand
     Plant Loop Connector Nodes,   1,Mixer,DEMAND MIXER,DOMESTIC HOT WATER OUTLET NODE,DEMAND DHW-PIPE NODE,DHW LOOP,Demand
 Plant Loop,DHW LOOP,Supply,WATER HEATER USE LOOP INLET NODE,WATER HEATER USE LOOP OUTLET NODE,WATER HEATER USE BRANCHES,WATER HEATER USE CONNECTORS
   Plant Loop Connector,Splitter,WATER HEATER USE SPLITTER,DHW LOOP,Supply,1
     Plant Loop Connector Branches,1,Splitter,WATER HEATER USE SPLITTER,WATER HEATER USE INLET BRANCH,WATER HEATER USE BRANCH,DHW LOOP,Supply
     Plant Loop Connector Nodes,   1,Splitter,WATER HEATER USE SPLITTER,DHW PUMP OUTLET NODE,WATER HEATER USE INLET NODE,DHW LOOP,Supply
   Plant Loop Connector,Mixer,WATER HEATER USE MIXER,DHW LOOP,Supply,1
     Plant Loop Connector Branches,1,Mixer,WATER HEATER USE MIXER,WATER HEATER USE BRANCH,WATER HEATER USE OUTLET BRANCH,DHW LOOP,Supply
     Plant Loop Connector Nodes,   1,Mixer,WATER HEATER USE MIXER,WATER HEATER USE OUTLET NODE,WATER HEATER USE OUTLET PIPE INLET NODE,DHW LOOP,Supply
 Plant Loop Supply Connection,DHW LOOP,WATER HEATER USE LOOP OUTLET NODE,DEMAND INLET NODE
 Plant Loop Return Connection,DHW LOOP,DEMAND OUTLET NODE,WATER HEATER USE LOOP INLET NODE
! ===============================================================
! <# Condenser Loops>,<Number of Condenser Loops>
 #Condenser Loops,0
! <Condenser Loop>,<Condenser Loop Name>,<Loop Type>,<Inlet Node Name>,<Outlet Node Name>,<Branch List>,<Connector List>
! <Condenser Loop Connector>,<Connector Type>,<Connector Name>,<Loop Name>,<Loop Type>,<Number of Inlets/Outlets>
! <Condenser Loop Connector Branches>,<Connector Node Count>,<Connector Type>,<Connector Name>,<Inlet Branch>,<Outlet Branch>,<Loop Name>,<Loop Type>
! <Condenser Loop Connector Nodes>,<Connector Node Count>,<Connector Type>,<Connector Name>,<Inlet Node>,<Outlet Node>,<Loop Name>,<Loop Type>
! <Condenser Loop Supply Connection>,<Condenser Loop Name>,<Supply Side Outlet Node Name>,<Demand Side Inlet Node Name>
! <Condenser Loop Return Connection>,<Condenser Loop Name>,<Demand Side Outlet Node Name>,<Supply Side Inlet Node Name>
! ===============================================================
! ===============================================================
! <#AirLoopHVACs>,<Number of AirLoopHVACs>
 #AirLoopHVACs,0
! <AirLoopHVAC>,<Air Loop Name>,<# Return Nodes>,<# Supply Nodes>,<# Zones Cooled>,<# Zones Heated>,<Outdoor Air Used>
! <AirLoop Return Connections>,<Connection Count>,<AirLoopHVAC Name>,<Zn Eqp Return Node #>,<Zn Eqp Return Node Name>,<AirLoop Return Node #>,<Air Loop Return Node Name>
! <AirLoop Supply Connections>,<Connection Count>,<AirLoopHVAC Name>,<Zn Eqp Supply Node #>,<Zn Eqp Supply Node Name>,<AirLoop Supply Node #>,<Air Loop Supply Node Name>
! <Cooled Zone Info>,<Cooled Zone Count>,<Cooled Zone Name>,<Cooled Zone Inlet Node #>,<Cooled Zone Inlet Node Name>,<AirLoopHVAC Name>
! <Heated Zone Info>,<Heated Zone Count>,<Heated Zone Name>,<Heated Zone Inlet Node #>,<Heated Zone Inlet Node Name>,<AirLoopHVAC Name>
! <Outdoor Air Connections>,<OA Inlet Node #>,<OA Return Air Inlet Node Name>,<OA Outlet Node #>,<OA Mixed Air Outlet Node Name>,<AirLoopHVAC Name>
! <AirLoopHVAC Connector>,<Connector Type>,<Connector Name>,<Loop Name>,<Loop Type>,<Number of Inlets/Outlets>
! <AirLoopHVAC Connector Branches>,<Connector Node Count>,<Connector Type>,<Connector Name>,<Inlet Branch>,<Outlet Branch>,<Loop Name>,<Loop Type>
! <AirLoopHVAC Connector Nodes>,<Connector Node Count>,<Connector Type>,<Connector Name>,<Inlet Node>,<Outlet Node>,<Loop Name>,<Loop Type>
! ===============================================================
! <#Parent Node Connections>,<Number of Parent Node Connections>
 #Parent Node Connections,23
! <Parent Node Connection>,<Node Name>,<Node ObjectType>,<Node ObjectName>,<Node ConnectionType>,<Node FluidStream>
 Parent Node Connection,WATER HEATER USE LOOP INLET NODE,BRANCH,WATER HEATER USE INLET BRANCH,Inlet,1
 Parent Node Connection,DHW PUMP OUTLET NODE,BRANCH,WATER HEATER USE INLET BRANCH,Outlet,1
 Parent Node Connection,WATER HEATER USE INLET NODE,BRANCH,WATER HEATER USE BRANCH,Inlet,1
 Parent Node Connection,WATER HEATER USE OUTLET NODE,BRANCH,WATER HEATER USE BRANCH,Outlet,1
 Parent Node Connection,WATER HEATER USE OUTLET PIPE INLET NODE,BRANCH,WATER HEATER USE OUTLET BRANCH,Inlet,1
 Parent Node Connection,WATER HEATER USE LOOP OUTLET NODE,BRANCH,WATER HEATER USE OUTLET BRANCH,Outlet,1
 Parent Node Connection,DEMAND INLET NODE,BRANCH,DEMAND INLET BRANCH,Inlet,1
 Parent Node Connection,DEMAND PIPE-DHW NODE,BRANCH,DEMAND INLET BRANCH,Outlet,1
 Parent Node Connection,DOMESTIC HOT WATER INLET NODE,BRANCH,DOMESTIC HOT WATER BRANCH,Inlet,1
 Parent Node Connection,DOMESTIC HOT WATER OUTLET NODE,BRANCH,DOMESTIC HOT WATER BRANCH,Outlet,1
 Parent Node Connection,DEMAND DHW-PIPE NODE,BRANCH,DEMAND OUTLET BRANCH,Inlet,1
 Parent Node Connection,DEMAND OUTLET NODE,BRANCH,DEMAND OUTLET BRANCH,Outlet,1
 Parent Node Connection,WATER HEATER USE LOOP INLET NODE,PLANTLOOP,DHW LOOP,Inlet,1
 Parent Node Connection,WATER HEATER USE LOOP OUTLET NODE,PLANTLOOP,DHW LOOP,Outlet,1
 Parent Node Connection,DEMAND INLET NODE,PLANTLOOP,DHW LOOP,Inlet,1
 Parent Node Connection,DEMAND OUTLET NODE,PLANTLOOP,DHW LOOP,Outlet,1
 Parent Node Connection,WATER HEATER USE LOOP OUTLET NODE,PLANTLOOP,DHW LOOP,Sensor,1
 Parent Node Connection,HPPLANTWATERINLETNODE,WATERHEATER:HEATPUMP:PUMPEDCONDENSER,PLANTHEATPUMPWATERHEATER,Inlet,2
 Parent Node Connection,HPPLANTWATEROUTLETNODE,WATERHEATER:HEATPUMP:PUMPEDCONDENSER,PLANTHEATPUMPWATERHEATER,Outlet,2
 Parent Node Connection,WATER HEATER USE INLET NODE,WATERHEATER:HEATPUMP:PUMPEDCONDENSER,PLANTHEATPUMPWATERHEATER,Inlet,1
 Parent Node Connection,WATER HEATER USE OUTLET NODE,WATERHEATER:HEATPUMP:PUMPEDCONDENSER,PLANTHEATPUMPWATERHEATER,Outlet,1
 Parent Node Connection,HPPLANTAIRINLETNODE,WATERHEATER:HEATPUMP:PUMPEDCONDENSER,PLANTHEATPUMPWATERHEATER,OutsideAirReference,1
 Parent Node Connection,HPPLANTFANAIROUTLETNODE,WATERHEATER:HEATPUMP:PUMPEDCONDENSER,PLANTHEATPUMPWATERHEATER,ReliefAir,1
! ===============================================================
! <#Non-Parent Node Connections>,<Number of Non-Parent Node Connections>
 #Non-Parent Node Connections,30
! <Non-Parent Node Connection>,<Node Name>,<Node ObjectType>,<Node ObjectName>,<Node ConnectionType>,<Node FluidStream>
 Non-Parent Node Connection,HPPLANTAIRINLETNODE,OUTDOORAIR:NODE,OutdoorAir:Node,OutdoorAir,1
 Non-Parent Node Connection,WATER HEATER USE LOOP OUTLET NODE,SETPOINTMANAGER:SCHEDULED,DHW LOOP SET POINT MANAGER,Setpoint,1
 Non-Parent Node Connection,WATER HEATER USE OUTLET PIPE INLET NODE,PIPE:ADIABATIC,WATER HEATER USE OUTLET PIPE,Inlet,1
 Non-Parent Node Connection,WATER HEATER USE LOOP OUTLET NODE,PIPE:ADIABATIC,WATER HEATER USE OUTLET PIPE,Outlet,1
 Non-Parent Node Connection,DEMAND INLET NODE,PIPE:ADIABATIC,DEMAND INLET PIPE,Inlet,1
 Non-Parent Node Connection,DEMAND PIPE-DHW NODE,PIPE:ADIABATIC,DEMAND INLET PIPE,Outlet,1
 Non-Parent Node Connection,DEMAND DHW-PIPE NODE,PIPE:ADIABATIC,DEMAND OUTLET PIPE,Inlet,1
 Non-Parent Node Connection,DEMAND OUTLET NODE,PIPE:ADIABATIC,DEMAND OUTLET PIPE,Outlet,1
 Non-Parent Node Connection,DOMESTIC HOT WATER INLET NODE,WATERUSE:CONNECTIONS,DOMESTIC HOT WATER,Inlet,1
 Non-Parent Node Connection,DOMESTIC HOT WATER OUTLET NODE,WATERUSE:CONNECTIONS,DOMESTIC HOT WATER,Outlet,1
 Non-Parent Node Connection,DEMAND PIPE-DHW NODE,CONNECTOR:SPLITTER,DEMAND SPLITTER,Inlet,1
 Non-Parent Node Connection,DOMESTIC HOT WATER INLET NODE,CONNECTOR:SPLITTER,DEMAND SPLITTER,Outlet,1
 Non-Parent Node Connection,DEMAND DHW-PIPE NODE,CONNECTOR:MIXER,DEMAND MIXER,Outlet,1
 Non-Parent Node Connection,DOMESTIC HOT WATER OUTLET NODE,CONNECTOR:MIXER,DEMAND MIXER,Inlet,1
 Non-Parent Node Connection,HPPLANTAIRINLETNODE,COIL:WATERHEATING:AIRTOWATERHEATPUMP:PUMPED,HPWHPLANTDXCOIL,Inlet,1
 Non-Parent Node Connection,HPPLANTAIROUTLETNODE,COIL:WATERHEATING:AIRTOWATERHEATPUMP:PUMPED,HPWHPLANTDXCOIL,Outlet,1
 Non-Parent Node Connection,HPPLANTWATERINLETNODE,COIL:WATERHEATING:AIRTOWATERHEATPUMP:PUMPED,HPWHPLANTDXCOIL,Inlet,2
 Non-Parent Node Connection,HPPLANTWATEROUTLETNODE,COIL:WATERHEATING:AIRTOWATERHEATPUMP:PUMPED,HPWHPLANTDXCOIL,Outlet,2
 Non-Parent Node Connection,HPPLANTAIROUTLETNODE,FAN:SYSTEMMODEL,HPWHPLANTFAN,Inlet,1
 Non-Parent Node Connection,HPPLANTFANAIROUTLETNODE,FAN:SYSTEMMODEL,HPWHPLANTFAN,Outlet,1
 Non-Parent Node Connection,WATER HEATER USE INLET NODE,WATERHEATER:STRATIFIED,WATER HEATER TANK,Inlet,1
 Non-Parent Node Connection,WATER HEATER USE OUTLET NODE,WATERHEATER:STRATIFIED,WATER HEATER TANK,Outlet,1
 Non-Parent Node Connection,HPPLANTWATEROUTLETNODE,WATERHEATER:STRATIFIED,WATER HEATER TANK,Inlet,2
 Non-Parent Node Connection,HPPLANTWATERINLETNODE,WATERHEATER:STRATIFIED,WATER HEATER TANK,Outlet,2
 Non-Parent Node Connection,DHW PUMP OUTLET NODE,CONNECTOR:SPLITTER,WATER HEATER USE SPLITTER,Inlet,1
 Non-Parent Node Connection,WATER HEATER USE INLET NODE,CONNECTOR:SPLITTER,WATER HEATER USE SPLITTER,Outlet,1
 Non-Parent Node Connection,WATER HEATER USE OUTLET PIPE INLET NODE,CONNECTOR:MIXER,WATER HEATER USE MIXER,Outlet,1
 Non-Parent Node Connection,WATER HEATER USE OUTLET NODE,CONNECTOR:MIXER,WATER HEATER USE MIXER,Inlet,1
 Non-Parent Node Connection,WATER HEATER USE LOOP INLET NODE,PUMP:VARIABLESPEED,DHW PUMP,Inlet,1
 Non-Parent Node Connection,DHW PUMP OUTLET NODE,PUMP:VARIABLESPEED,DHW PUMP,Outlet,1
