! Program Version,EnergyPlus, Version 9.6.0-f420c06a69, YMD=2024.09.02 23:05,
! Output:Meter Objects (applicable to this run)
Output:Meter,Electricity:Facility,hourly; !- [J]
Output:Meter:Cumulative,Electricity:Facility,hourly; !- [J]
Output:Meter,Electricity:Plant,hourly; !- [J]
Output:Meter:Cumulative,Electricity:Plant,hourly; !- [J]
Output:Meter,WaterSystems:Electricity,hourly; !- [J]
Output:Meter:Cumulative,WaterSystems:Electricity,hourly; !- [J]
Output:Meter,Electricity:HVAC,hourly; !- [J]
Output:Meter:Cumulative,Electricity:HVAC,hourly; !- [J]
Output:Meter,Fans:Electricity,hourly; !- [J]
Output:Meter:Cumulative,Fans:Electricity,hourly; !- [J]
Output:Meter,General:Fans:Electricity,hourly; !- [J]
Output:Meter:Cumulative,General:Fans:Electricity,hourly; !- [J]
Output:Meter,PlantLoopHeatingDemand:Facility,hourly; !- [J]
Output:Meter:Cumulative,PlantLoopHeatingDemand:Facility,hourly; !- [J]
Output:Meter,PlantLoopHeatingDemand:Plant,hourly; !- [J]
Output:Meter:Cumulative,PlantLoopHeatingDemand:Plant,hourly; !- [J]
Output:Meter,WaterSystems:PlantLoopHeatingDemand,hourly; !- [J]
Output:Meter:Cumulative,WaterSystems:PlantLoopHeatingDemand,hourly; !- [J]
Output:Meter,General:WaterSystems:PlantLoopHeatingDemand,hourly; !- [J]
Output:Meter:Cumulative,General:WaterSystems:PlantLoopHeatingDemand,hourly; !- [J]
Output:Meter,ElectricityPurchased:Facility,hourly; !- [J]
Output:Meter:Cumulative,ElectricityPurchased:Facility,hourly; !- [J]
Output:Meter,ElectricityPurchased:Plant,hourly; !- [J]
Output:Meter:Cumulative,ElectricityPurchased:Plant,hourly; !- [J]
Output:Meter,Cogeneration:ElectricityPurchased,hourly; !- [J]
Output:Meter:Cumulative,Cogeneration:ElectricityPurchased,hourly; !- [J]
Output:Meter,General:Cogeneration:ElectricityPurchased,hourly; !- [J]
Output:Meter:Cumulative,General:Cogeneration:ElectricityPurchased,hourly; !- [J]
Output:Meter,ElectricitySurplusSold:Facility,hourly; !- [J]
Output:Meter:Cumulative,ElectricitySurplusSold:Facility,hourly; !- [J]
Output:Meter,ElectricitySurplusSold:Plant,hourly; !- [J]
Output:Meter:Cumulative,ElectricitySurplusSold:Plant,hourly; !- [J]
Output:Meter,Cogeneration:ElectricitySurplusSold,hourly; !- [J]
Output:Meter:Cumulative,Cogeneration:ElectricitySurplusSold,hourly; !- [J]
Output:Meter,General:Cogeneration:ElectricitySurplusSold,hourly; !- [J]
Output:Meter:Cumulative,General:Cogeneration:ElectricitySurplusSold,hourly; !- [J]
Output:Meter,ElectricityNet:Facility,hourly; !- [J]
Output:Meter:Cumulative,ElectricityNet:Facility,hourly; !- [J]
Output:Meter,ElectricityNet:Plant,hourly; !- [J]
Output:Meter:Cumulative,ElectricityNet:Plant,hourly; !- [J]
Output:Meter,Cogeneration:ElectricityNet,hourly; !- [J]
Output:Meter:Cumulative,Cogeneration:ElectricityNet,hourly; !- [J]
Output:Meter,General:Cogeneration:ElectricityNet,hourly; !- [J]
Output:Meter:Cumulative,General:Cogeneration:ElectricityNet,hourly; !- [J]
Output:Meter,Water:Facility,hourly; !- [m3]
Output:Meter:Cumulative,Water:Facility,hourly; !- [m3]
Output:Meter,Water:Plant,hourly; !- [m3]
Output:Meter:Cumulative,Water:Plant,hourly; !- [m3]
Output:Meter,WaterSystems:Water,hourly; !- [m3]
Output:Meter:Cumulative,WaterSystems:Water,hourly; !- [m3]
Output:Meter,Sinks:WaterSystems:Water,hourly; !- [m3]
Output:Meter:Cumulative,Sinks:WaterSystems:Water,hourly; !- [m3]
Output:Meter,MainsWater:Facility,hourly; !- [m3]
Output:Meter:Cumulative,MainsWater:Facility,hourly; !- [m3]
Output:Meter,MainsWater:Plant,hourly; !- [m3]
Output:Meter:Cumulative,MainsWater:Plant,hourly; !- [m3]
Output:Meter,WaterSystems:MainsWater,hourly; !- [m3]
Output:Meter:Cumulative,WaterSystems:MainsWater,hourly; !- [m3]
Output:Meter,Sinks:WaterSystems:MainsWater,hourly; !- [m3]
Output:Meter:Cumulative,Sinks:WaterSystems:MainsWater,hourly; !- [m3]
Output:Meter,EnergyTransfer:Facility,hourly; !- [J]
Output:Meter:Cumulative,EnergyTransfer:Facility,hourly; !- [J]
Output:Meter,EnergyTransfer:Plant,hourly; !- [J]
Output:Meter:Cumulative,EnergyTransfer:Plant,hourly; !- [J]
Output:Meter,WaterSystems:EnergyTransfer,hourly; !- [J]
Output:Meter:Cumulative,WaterSystems:EnergyTransfer,hourly; !- [J]
Output:Meter,Sinks:WaterSystems:EnergyTransfer,hourly; !- [J]
Output:Meter:Cumulative,Sinks:WaterSystems:EnergyTransfer,hourly; !- [J]
Output:Meter,Showers:WaterSystems:Water,hourly; !- [m3]
Output:Meter:Cumulative,Showers:WaterSystems:Water,hourly; !- [m3]
Output:Meter,Showers:WaterSystems:MainsWater,hourly; !- [m3]
Output:Meter:Cumulative,Showers:WaterSystems:MainsWater,hourly; !- [m3]
Output:Meter,Showers:WaterSystems:EnergyTransfer,hourly; !- [J]
Output:Meter:Cumulative,Showers:WaterSystems:EnergyTransfer,hourly; !- [J]
Output:Meter,Water Heater:WaterSystems:PlantLoopHeatingDemand,hourly; !- [J]
Output:Meter:Cumulative,Water Heater:WaterSystems:PlantLoopHeatingDemand,hourly; !- [J]
Output:Meter,Water Heater:WaterSystems:Electricity,hourly; !- [J]
Output:Meter:Cumulative,Water Heater:WaterSystems:Electricity,hourly; !- [J]
Output:Meter,Water Heater:WaterSystems:Water,hourly; !- [m3]
Output:Meter:Cumulative,Water Heater:WaterSystems:Water,hourly; !- [m3]
Output:Meter,Water Heater:WaterSystems:MainsWater,hourly; !- [m3]
Output:Meter:Cumulative,Water Heater:WaterSystems:MainsWater,hourly; !- [m3]
Output:Meter,Water Heater Parasitic:WaterSystems:Electricity,hourly; !- [J]
Output:Meter:Cumulative,Water Heater Parasitic:WaterSystems:Electricity,hourly; !- [J]
Output:Meter,Pumps:Electricity,hourly; !- [J]
Output:Meter:Cumulative,Pumps:Electricity,hourly; !- [J]
Output:Meter,General:Pumps:Electricity,hourly; !- [J]
Output:Meter:Cumulative,General:Pumps:Electricity,hourly; !- [J]
Output:Meter,Carbon Equivalent:Facility,hourly; !- [kg]
Output:Meter:Cumulative,Carbon Equivalent:Facility,hourly; !- [kg]
Output:Meter,CarbonEquivalentEmissions:Carbon Equivalent,hourly; !- [kg]
Output:Meter:Cumulative,CarbonEquivalentEmissions:Carbon Equivalent,hourly; !- [kg]
