! Program Version,EnergyPlus, Version 9.2.0-921312fa1d, YMD=2020.05.06 10:33,
! Output:Variable Objects (applicable to this run)
Output:Variable,*,Site Outdoor Air Drybulb Temperature,hourly; !- Zone Average [C]
Output:Variable,*,Site Outdoor Air Dewpoint Temperature,hourly; !- Zone Average [C]
Output:Variable,*,Site Outdoor Air Wetbulb Temperature,hourly; !- Zone Average [C]
Output:Variable,*,Site Outdoor Air Humidity Ratio,hourly; !- Zone Average [kgWater/kgDryAir]
Output:Variable,*,Site Outdoor Air Relative Humidity,hourly; !- Zone Average [%]
Output:Variable,*,Site Outdoor Air Barometric Pressure,hourly; !- Zone Average [Pa]
Output:Variable,*,Site Wind Speed,hourly; !- Zone Average [m/s]
Output:Variable,*,Site Wind Direction,hourly; !- Zone Average [deg]
Output:Variable,*,Site Sky Temperature,hourly; !- Zone Average [C]
Output:Variable,*,Site Horizontal Infrared Radiation Rate per Area,hourly; !- Zone Average [W/m2]
Output:Variable,*,Site Diffuse Solar Radiation Rate per Area,hourly; !- Zone Average [W/m2]
Output:Variable,*,Site Direct Solar Radiation Rate per Area,hourly; !- Zone Average [W/m2]
Output:Variable,*,Site Precipitation Depth,hourly; !- Zone Sum [m]
Output:Variable,*,Site Ground Reflected Solar Radiation Rate per Area,hourly; !- Zone Average [W/m2]
Output:Variable,*,Site Ground Temperature,hourly; !- Zone Average [C]
Output:Variable,*,Site Surface Ground Temperature,hourly; !- Zone Average [C]
Output:Variable,*,Site Deep Ground Temperature,hourly; !- Zone Average [C]
Output:Variable,*,Site Simple Factor Model Ground Temperature,hourly; !- Zone Average [C]
Output:Variable,*,Site Outdoor Air Enthalpy,hourly; !- Zone Average [J/kg]
Output:Variable,*,Site Outdoor Air Density,hourly; !- Zone Average [kg/m3]
Output:Variable,*,Site Solar Azimuth Angle,hourly; !- Zone Average [deg]
Output:Variable,*,Site Solar Altitude Angle,hourly; !- Zone Average [deg]
Output:Variable,*,Site Solar Hour Angle,hourly; !- Zone Average [deg]
Output:Variable,*,Site Rain Status,hourly; !- Zone Average []
Output:Variable,*,Site Snow on Ground Status,hourly; !- Zone Average []
Output:Variable,*,Site Exterior Horizontal Sky Illuminance,hourly; !- Zone Average [lux]
Output:Variable,*,Site Exterior Horizontal Beam Illuminance,hourly; !- Zone Average [lux]
Output:Variable,*,Site Exterior Beam Normal Illuminance,hourly; !- Zone Average [lux]
Output:Variable,*,Site Sky Diffuse Solar Radiation Luminous Efficacy,hourly; !- Zone Average [lum/W]
Output:Variable,*,Site Beam Solar Radiation Luminous Efficacy,hourly; !- Zone Average [lum/W]
Output:Variable,*,Site Daylighting Model Sky Clearness,hourly; !- Zone Average []
Output:Variable,*,Site Daylighting Model Sky Brightness,hourly; !- Zone Average []
Output:Variable,*,Site Daylight Saving Time Status,hourly; !- Zone Average []
Output:Variable,*,Site Day Type Index,hourly; !- Zone Average []
Output:Variable,*,Site Mains Water Temperature,hourly; !- Zone Average [C]
Output:Variable,*,Zone Outdoor Air Drybulb Temperature,hourly; !- Zone Average [C]
Output:Variable,*,Zone Outdoor Air Wetbulb Temperature,hourly; !- Zone Average [C]
Output:Variable,*,Zone Outdoor Air Wind Speed,hourly; !- Zone Average [m/s]
Output:Variable,*,Zone Outdoor Air Wind Direction,hourly; !- Zone Average [deg]
Output:Variable,*,Zone Total Internal Radiant Heating Energy,hourly; !- Zone Sum [J]
Output:Variable,*,Zone Total Internal Radiant Heating Rate,hourly; !- Zone Average [W]
Output:Variable,*,Zone Total Internal Visible Radiation Heating Energy,hourly; !- Zone Sum [J]
Output:Variable,*,Zone Total Internal Visible Radiation Heating Rate,hourly; !- Zone Average [W]
Output:Variable,*,Zone Total Internal Convective Heating Energy,hourly; !- Zone Sum [J]
Output:Variable,*,Zone Total Internal Convective Heating Rate,hourly; !- Zone Average [W]
Output:Variable,*,Zone Total Internal Latent Gain Energy,hourly; !- Zone Sum [J]
Output:Variable,*,Zone Total Internal Latent Gain Rate,hourly; !- Zone Average [W]
Output:Variable,*,Zone Total Internal Total Heating Energy,hourly; !- Zone Sum [J]
Output:Variable,*,Zone Total Internal Total Heating Rate,hourly; !- Zone Average [W]
Output:Variable,*,People Occupant Count,hourly; !- Zone Average []
Output:Variable,*,People Radiant Heating Energy,hourly; !- Zone Sum [J]
Output:Variable,*,People Radiant Heating Rate,hourly; !- Zone Average [W]
Output:Variable,*,People Convective Heating Energy,hourly; !- Zone Sum [J]
Output:Variable,*,People Convective Heating Rate,hourly; !- Zone Average [W]
Output:Variable,*,People Sensible Heating Energy,hourly; !- Zone Sum [J]
Output:Variable,*,People Sensible Heating Rate,hourly; !- Zone Average [W]
Output:Variable,*,People Latent Gain Energy,hourly; !- Zone Sum [J]
Output:Variable,*,People Latent Gain Rate,hourly; !- Zone Average [W]
Output:Variable,*,People Total Heating Energy,hourly; !- Zone Sum [J]
Output:Variable,*,People Total Heating Rate,hourly; !- Zone Average [W]
Output:Variable,*,People Air Temperature,hourly; !- Zone Average [C]
Output:Variable,*,People Air Relative Humidity,hourly; !- Zone Average [%]
Output:Variable,*,Zone People Occupant Count,hourly; !- Zone Average []
Output:Variable,*,Zone People Radiant Heating Energy,hourly; !- Zone Sum [J]
Output:Variable,*,Zone People Radiant Heating Rate,hourly; !- Zone Average [W]
Output:Variable,*,Zone People Convective Heating Energy,hourly; !- Zone Sum [J]
Output:Variable,*,Zone People Convective Heating Rate,hourly; !- Zone Average [W]
Output:Variable,*,Zone People Sensible Heating Energy,hourly; !- Zone Sum [J]
Output:Variable,*,Zone People Sensible Heating Rate,hourly; !- Zone Average [W]
Output:Variable,*,Zone People Latent Gain Energy,hourly; !- Zone Sum [J]
Output:Variable,*,Zone People Latent Gain Rate,hourly; !- Zone Average [W]
Output:Variable,*,Zone People Total Heating Energy,hourly; !- Zone Sum [J]
Output:Variable,*,Zone People Total Heating Rate,hourly; !- Zone Average [W]
Output:Variable,*,Lights Electric Power,hourly; !- Zone Average [W]
Output:Variable,*,Lights Radiant Heating Energy,hourly; !- Zone Sum [J]
Output:Variable,*,Lights Radiant Heating Rate,hourly; !- Zone Average [W]
Output:Variable,*,Lights Visible Radiation Heating Energy,hourly; !- Zone Sum [J]
Output:Variable,*,Lights Visible Radiation Heating Rate,hourly; !- Zone Average [W]
Output:Variable,*,Lights Convective Heating Energy,hourly; !- Zone Sum [J]
Output:Variable,*,Lights Convective Heating Rate,hourly; !- Zone Average [W]
Output:Variable,*,Lights Return Air Heating Energy,hourly; !- Zone Sum [J]
Output:Variable,*,Lights Return Air Heating Rate,hourly; !- Zone Average [W]
Output:Variable,*,Lights Total Heating Energy,hourly; !- Zone Sum [J]
Output:Variable,*,Lights Total Heating Rate,hourly; !- Zone Average [W]
Output:Variable,*,Lights Electric Energy,hourly; !- Zone Sum [J]
Output:Variable,*,Zone Lights Electric Power,hourly; !- Zone Average [W]
Output:Variable,*,Zone Lights Electric Energy,hourly; !- Zone Sum [J]
Output:Variable,*,Zone Lights Radiant Heating Energy,hourly; !- Zone Sum [J]
Output:Variable,*,Zone Lights Radiant Heating Rate,hourly; !- Zone Average [W]
Output:Variable,*,Zone Lights Visible Radiation Heating Energy,hourly; !- Zone Sum [J]
Output:Variable,*,Zone Lights Visible Radiation Heating Rate,hourly; !- Zone Average [W]
Output:Variable,*,Zone Lights Convective Heating Energy,hourly; !- Zone Sum [J]
Output:Variable,*,Zone Lights Convective Heating Rate,hourly; !- Zone Average [W]
Output:Variable,*,Zone Lights Return Air Heating Energy,hourly; !- Zone Sum [J]
Output:Variable,*,Zone Lights Return Air Heating Rate,hourly; !- Zone Average [W]
Output:Variable,*,Zone Lights Total Heating Energy,hourly; !- Zone Sum [J]
Output:Variable,*,Zone Lights Total Heating Rate,hourly; !- Zone Average [W]
Output:Variable,*,Electric Equipment Electric Power,hourly; !- Zone Average [W]
Output:Variable,*,Electric Equipment Electric Energy,hourly; !- Zone Sum [J]
Output:Variable,*,Electric Equipment Radiant Heating Energy,hourly; !- Zone Sum [J]
Output:Variable,*,Electric Equipment Radiant Heating Rate,hourly; !- Zone Average [W]
Output:Variable,*,Electric Equipment Convective Heating Energy,hourly; !- Zone Sum [J]
Output:Variable,*,Electric Equipment Convective Heating Rate,hourly; !- Zone Average [W]
Output:Variable,*,Electric Equipment Latent Gain Energy,hourly; !- Zone Sum [J]
Output:Variable,*,Electric Equipment Latent Gain Rate,hourly; !- Zone Average [W]
Output:Variable,*,Electric Equipment Lost Heat Energy,hourly; !- Zone Sum [J]
Output:Variable,*,Electric Equipment Lost Heat Rate,hourly; !- Zone Average [W]
Output:Variable,*,Electric Equipment Total Heating Energy,hourly; !- Zone Sum [J]
Output:Variable,*,Electric Equipment Total Heating Rate,hourly; !- Zone Average [W]
Output:Variable,*,Zone Electric Equipment Electric Power,hourly; !- Zone Average [W]
Output:Variable,*,Zone Electric Equipment Electric Energy,hourly; !- Zone Sum [J]
Output:Variable,*,Zone Electric Equipment Radiant Heating Energy,hourly; !- Zone Sum [J]
Output:Variable,*,Zone Electric Equipment Radiant Heating Rate,hourly; !- Zone Average [W]
Output:Variable,*,Zone Electric Equipment Convective Heating Energy,hourly; !- Zone Sum [J]
Output:Variable,*,Zone Electric Equipment Convective Heating Rate,hourly; !- Zone Average [W]
Output:Variable,*,Zone Electric Equipment Latent Gain Energy,hourly; !- Zone Sum [J]
Output:Variable,*,Zone Electric Equipment Latent Gain Rate,hourly; !- Zone Average [W]
Output:Variable,*,Zone Electric Equipment Lost Heat Energy,hourly; !- Zone Sum [J]
Output:Variable,*,Zone Electric Equipment Lost Heat Rate,hourly; !- Zone Average [W]
Output:Variable,*,Zone Electric Equipment Total Heating Energy,hourly; !- Zone Sum [J]
Output:Variable,*,Zone Electric Equipment Total Heating Rate,hourly; !- Zone Average [W]
Output:Variable,*,Gas Equipment Gas Rate,hourly; !- Zone Average [W]
Output:Variable,*,Gas Equipment Gas Energy,hourly; !- Zone Sum [J]
Output:Variable,*,Gas Equipment Radiant Heating Energy,hourly; !- Zone Sum [J]
Output:Variable,*,Gas Equipment Convective Heating Energy,hourly; !- Zone Sum [J]
Output:Variable,*,Gas Equipment Latent Gain Energy,hourly; !- Zone Sum [J]
Output:Variable,*,Gas Equipment Lost Heat Energy,hourly; !- Zone Sum [J]
Output:Variable,*,Gas Equipment Total Heating Energy,hourly; !- Zone Sum [J]
Output:Variable,*,Gas Equipment Radiant Heating Rate,hourly; !- Zone Average [W]
Output:Variable,*,Gas Equipment Convective Heating Rate,hourly; !- Zone Average [W]
Output:Variable,*,Gas Equipment Latent Gain Rate,hourly; !- Zone Average [W]
Output:Variable,*,Gas Equipment Lost Heat Rate,hourly; !- Zone Average [W]
Output:Variable,*,Gas Equipment Total Heating Rate,hourly; !- Zone Average [W]
Output:Variable,*,Zone Gas Equipment Gas Rate,hourly; !- Zone Average [W]
Output:Variable,*,Zone Gas Equipment Gas Energy,hourly; !- Zone Sum [J]
Output:Variable,*,Zone Gas Equipment Radiant Heating Energy,hourly; !- Zone Sum [J]
Output:Variable,*,Zone Gas Equipment Radiant Heating Rate,hourly; !- Zone Average [W]
Output:Variable,*,Zone Gas Equipment Convective Heating Energy,hourly; !- Zone Sum [J]
Output:Variable,*,Zone Gas Equipment Convective Heating Rate,hourly; !- Zone Average [W]
Output:Variable,*,Zone Gas Equipment Latent Gain Energy,hourly; !- Zone Sum [J]
Output:Variable,*,Zone Gas Equipment Latent Gain Rate,hourly; !- Zone Average [W]
Output:Variable,*,Zone Gas Equipment Lost Heat Energy,hourly; !- Zone Sum [J]
Output:Variable,*,Zone Gas Equipment Lost Heat Rate,hourly; !- Zone Average [W]
Output:Variable,*,Zone Gas Equipment Total Heating Energy,hourly; !- Zone Sum [J]
Output:Variable,*,Zone Gas Equipment Total Heating Rate,hourly; !- Zone Average [W]
Output:Variable,*,Zone Windows Total Transmitted Solar Radiation Rate,hourly; !- Zone Average [W]
Output:Variable,*,Zone Exterior Windows Total Transmitted Beam Solar Radiation Rate,hourly; !- Zone Average [W]
Output:Variable,*,Zone Interior Windows Total Transmitted Beam Solar Radiation Rate,hourly; !- Zone Average [W]
Output:Variable,*,Zone Exterior Windows Total Transmitted Diffuse Solar Radiation Rate,hourly; !- Zone Average [W]
Output:Variable,*,Zone Interior Windows Total Transmitted Diffuse Solar Radiation Rate,hourly; !- Zone Average [W]
Output:Variable,*,Zone Windows Total Heat Gain Rate,hourly; !- Zone Average [W]
Output:Variable,*,Zone Windows Total Heat Loss Rate,hourly; !- Zone Average [W]
Output:Variable,*,Zone Windows Total Transmitted Solar Radiation Energy,hourly; !- Zone Sum [J]
Output:Variable,*,Zone Exterior Windows Total Transmitted Beam Solar Radiation Energy,hourly; !- Zone Sum [J]
Output:Variable,*,Zone Interior Windows Total Transmitted Beam Solar Radiation Energy,hourly; !- Zone Sum [J]
Output:Variable,*,Zone Exterior Windows Total Transmitted Diffuse Solar Radiation Energy,hourly; !- Zone Sum [J]
Output:Variable,*,Zone Interior Windows Total Transmitted Diffuse Solar Radiation Energy,hourly; !- Zone Sum [J]
Output:Variable,*,Zone Windows Total Heat Gain Energy,hourly; !- Zone Sum [J]
Output:Variable,*,Zone Windows Total Heat Loss Energy,hourly; !- Zone Sum [J]
Output:Variable,*,Surface Outside Normal Azimuth Angle,hourly; !- Zone Average [deg]
Output:Variable,*,Surface Outside Face Sunlit Area,hourly; !- Zone Average [m2]
Output:Variable,*,Surface Outside Face Sunlit Fraction,hourly; !- Zone Average []
Output:Variable,*,Surface Outside Face Incident Solar Radiation Rate per Area,hourly; !- Zone Average [W/m2]
Output:Variable,*,Surface Outside Face Incident Beam Solar Radiation Rate per Area,hourly; !- Zone Average [W/m2]
Output:Variable,*,Surface Outside Face Incident Sky Diffuse Solar Radiation Rate per Area,hourly; !- Zone Average [W/m2]
Output:Variable,*,Surface Outside Face Incident Ground Diffuse Solar Radiation Rate per Area,hourly; !- Zone Average [W/m2]
Output:Variable,*,Surface Outside Face Beam Solar Incident Angle Cosine Value,hourly; !- Zone Average []
Output:Variable,*,Surface Outside Face Incident Sky Diffuse Ground Reflected Solar Radiation Rate per Area,hourly; !- Zone Average [W/m2]
Output:Variable,*,Surface Outside Face Incident Sky Diffuse Surface Reflected Solar Radiation Rate per Area,hourly; !- Zone Average [W/m2]
Output:Variable,*,Surface Outside Face Incident Beam To Beam Surface Reflected Solar Radiation Rate per Area,hourly; !- Zone Average [W/m2]
Output:Variable,*,Surface Outside Face Incident Beam To Diffuse Surface Reflected Solar Radiation Rate per Area,hourly; !- Zone Average [W/m2]
Output:Variable,*,Surface Outside Face Incident Beam To Diffuse Ground Reflected Solar Radiation Rate per Area,hourly; !- Zone Average [W/m2]
Output:Variable,*,Surface Anisotropic Sky Multiplier,hourly; !- Zone Average []
Output:Variable,*,Surface Window BSDF Beam Direction Number,hourly; !- Zone Average []
Output:Variable,*,Surface Window BSDF Beam Theta Angle,hourly; !- Zone Average [rad]
Output:Variable,*,Surface Window BSDF Beam Phi Angle,hourly; !- Zone Average [rad]
Output:Variable,*,Surface Window Total Glazing Layers Absorbed Solar Radiation Rate,hourly; !- Zone Average [W]
Output:Variable,*,Surface Window Total Glazing Layers Absorbed Shortwave Radiation Rate,hourly; !- Zone Average [W]
Output:Variable,*,Surface Window Front Face Temperature Layer 1,hourly; !- Zone Average [C]
Output:Variable,*,Surface Window Back Face Temperature Layer 1,hourly; !- Zone Average [C]
Output:Variable,*,Surface Window Transmitted Solar Radiation Rate,hourly; !- Zone Average [W]
Output:Variable,*,Surface Window Transmitted Beam Solar Radiation Rate,hourly; !- Zone Average [W]
Output:Variable,*,Surface Window Transmitted Beam To Beam Solar Radiation Rate,hourly; !- Zone Average [W]
Output:Variable,*,Surface Window Transmitted Beam To Diffuse Solar Radiation Rate,hourly; !- Zone Average [W]
Output:Variable,*,Surface Window Transmitted Diffuse Solar Radiation Rate,hourly; !- Zone Average [W]
Output:Variable,*,Surface Window Heat Gain Rate,hourly; !- Zone Average [W]
Output:Variable,*,Surface Window Heat Loss Rate,hourly; !- Zone Average [W]
Output:Variable,*,Surface Window Gap Convective Heat Transfer Rate,hourly; !- Zone Average [W]
Output:Variable,*,Surface Window Shading Device Absorbed Solar Radiation Rate,hourly; !- Zone Average [W]
Output:Variable,*,Surface Window Net Heat Transfer Rate,hourly; !- Zone Average [W]
Output:Variable,*,Surface Window Total Glazing Layers Absorbed Solar Radiation Energy,hourly; !- Zone Sum [J]
Output:Variable,*,Surface Window Transmitted Solar Radiation Energy,hourly; !- Zone Sum [J]
Output:Variable,*,Surface Window Transmitted Beam Solar Radiation Energy,hourly; !- Zone Sum [J]
Output:Variable,*,Surface Window Transmitted Beam To Beam Solar Radiation Energy,hourly; !- Zone Sum [J]
Output:Variable,*,Surface Window Transmitted Beam To Diffuse Solar Radiation Energy,hourly; !- Zone Sum [J]
Output:Variable,*,Surface Window Transmitted Diffuse Solar Radiation Energy,hourly; !- Zone Sum [J]
Output:Variable,*,Surface Window Heat Gain Energy,hourly; !- Zone Sum [J]
Output:Variable,*,Surface Window Heat Loss Energy,hourly; !- Zone Sum [J]
Output:Variable,*,Surface Window Gap Convective Heat Transfer Energy,hourly; !- Zone Sum [J]
Output:Variable,*,Surface Window Shading Device Absorbed Solar Radiation Energy,hourly; !- Zone Sum [J]
Output:Variable,*,Surface Window Net Heat Transfer Energy,hourly; !- Zone Sum [J]
Output:Variable,*,Surface Window System Solar Transmittance,hourly; !- Zone Average []
Output:Variable,*,Surface Window System Solar Reflectance,hourly; !- Zone Average []
Output:Variable,*,Surface Window System Solar Absorptance,hourly; !- Zone Average []
Output:Variable,*,Surface Window Inside Face Glazing Condensation Status,hourly; !- Zone Average []
Output:Variable,*,Surface Window Inside Face Frame Condensation Status,hourly; !- Zone Average []
Output:Variable,*,Surface Window Inside Face Divider Condensation Status,hourly; !- Zone Average []
Output:Variable,*,Surface Window Outside Reveal Reflected Beam Solar Radiation Rate,hourly; !- Zone Average [W]
Output:Variable,*,Surface Window Outside Reveal Reflected Beam Solar Radiation Energy,hourly; !- Zone Sum [J]
Output:Variable,*,Surface Window Solar Horizontal Profile Angle,hourly; !- Zone Average [deg]
Output:Variable,*,Surface Window Solar Vertical Profile Angle,hourly; !- Zone Average [deg]
Output:Variable,*,Surface Window Glazing Beam to Beam Solar Transmittance,hourly; !- Zone Average []
Output:Variable,*,Surface Window Glazing Beam to Diffuse Solar Transmittance,hourly; !- Zone Average []
Output:Variable,*,Surface Window Glazing Diffuse to Diffuse Solar Transmittance,hourly; !- Zone Average []
Output:Variable,*,Surface Window Model Solver Iteration Count,hourly; !- Zone Average []
Output:Variable,*,Surface Inside Face Exterior Windows Incident Beam Solar Radiation Rate per Area,hourly; !- Zone Average [W/m2]
Output:Variable,*,Surface Inside Face Exterior Windows Incident Beam Solar Radiation Rate,hourly; !- Zone Average [W]
Output:Variable,*,Surface Inside Face Interior Windows Incident Beam Solar Radiation Rate per Area,hourly; !- Zone Average [W/m2]
Output:Variable,*,Surface Inside Face Interior Windows Incident Beam Solar Radiation Rate,hourly; !- Zone Average [W]
Output:Variable,*,Surface Inside Face Initial Transmitted Diffuse Absorbed Solar Radiation Rate,hourly; !- Zone Average [W]
Output:Variable,*,Surface Inside Face Initial Transmitted Diffuse Transmitted Out Window Solar Radiation Rate,hourly; !- Zone Average [W]
Output:Variable,*,Surface Inside Face Absorbed Shortwave Radiation Rate,hourly; !- Zone Average [W]
Output:Variable,*,Surface Inside Face Exterior Windows Incident Beam Solar Radiation Energy,hourly; !- Zone Sum [J]
Output:Variable,*,Surface Inside Face Interior Windows Incident Beam Solar Radiation Energy,hourly; !- Zone Sum [J]
Output:Variable,*,Debug Surface Solar Shading Model DifShdgRatioIsoSky,hourly; !- Zone Average []
Output:Variable,*,Debug Surface Solar Shading Model DifShdgRatioHoriz,hourly; !- Zone Average []
Output:Variable,*,Debug Surface Solar Shading Model WithShdgIsoSky,hourly; !- Zone Average []
Output:Variable,*,Debug Surface Solar Shading Model WoShdgIsoSky,hourly; !- Zone Average []
Output:Variable,*,Surface Inside Face Temperature,hourly; !- Zone Average [C]
Output:Variable,*,Surface Inside Face Interior Movable Insulation Temperature,hourly; !- Zone Average [C]
Output:Variable,*,Surface Outside Face Temperature,hourly; !- Zone Average [C]
Output:Variable,*,Surface Inside Face Adjacent Air Temperature,hourly; !- Zone Average [C]
Output:Variable,*,Surface Inside Face Convection Heat Transfer Coefficient,hourly; !- Zone Average [W/m2-K]
Output:Variable,*,Surface Inside Face Convection Heat Gain Rate,hourly; !- Zone Average [W]
Output:Variable,*,Surface Inside Face Convection Heat Gain Rate per Area,hourly; !- Zone Average [W/m2]
Output:Variable,*,Surface Inside Face Convection Heat Gain Energy,hourly; !- Zone Sum [J]
Output:Variable,*,Surface Inside Face Net Surface Thermal Radiation Heat Gain Rate,hourly; !- Zone Average [W]
Output:Variable,*,Surface Inside Face Net Surface Thermal Radiation Heat Gain Rate per Area,hourly; !- Zone Average [W/m2]
Output:Variable,*,Surface Inside Face Net Surface Thermal Radiation Heat Gain Energy,hourly; !- Zone Sum [J]
Output:Variable,*,Surface Inside Face Solar Radiation Heat Gain Rate,hourly; !- Zone Average [W]
Output:Variable,*,Surface Inside Face Solar Radiation Heat Gain Rate per Area,hourly; !- Zone Average [W/m2]
Output:Variable,*,Surface Inside Face Solar Radiation Heat Gain Energy,hourly; !- Zone Sum [J]
Output:Variable,*,Surface Inside Face Lights Radiation Heat Gain Rate,hourly; !- Zone Average [W]
Output:Variable,*,Surface Inside Face Lights Radiation Heat Gain Rate per Area,hourly; !- Zone Average [W/m2]
Output:Variable,*,Surface Inside Face Lights Radiation Heat Gain Energy,hourly; !- Zone Sum [J]
Output:Variable,*,Surface Inside Face Internal Gains Radiation Heat Gain Rate,hourly; !- Zone Average [W]
Output:Variable,*,Surface Inside Face Internal Gains Radiation Heat Gain Rate per Area,hourly; !- Zone Average [W/m2]
Output:Variable,*,Surface Inside Face Internal Gains Radiation Heat Gain Energy,hourly; !- Zone Sum [J]
Output:Variable,*,Surface Inside Face System Radiation Heat Gain Rate,hourly; !- Zone Average [W]
Output:Variable,*,Surface Inside Face System Radiation Heat Gain Rate per Area,hourly; !- Zone Average [W/m2]
Output:Variable,*,Surface Inside Face System Radiation Heat Gain Energy,hourly; !- Zone Sum [J]
Output:Variable,*,Surface Outside Face Outdoor Air Drybulb Temperature,hourly; !- Zone Average [C]
Output:Variable,*,Surface Outside Face Outdoor Air Wetbulb Temperature,hourly; !- Zone Average [C]
Output:Variable,*,Surface Outside Face Outdoor Air Wind Speed,hourly; !- Zone Average [m/s]
Output:Variable,*,Surface Outside Face Outdoor Air Wind Direction,hourly; !- Zone Average [deg]
Output:Variable,*,Surface Outside Face Convection Heat Gain Rate,hourly; !- Zone Average [W]
Output:Variable,*,Surface Outside Face Convection Heat Gain Rate per Area,hourly; !- Zone Average [W/m2]
Output:Variable,*,Surface Outside Face Convection Heat Gain Energy,hourly; !- Zone Sum [J]
Output:Variable,*,Surface Outside Face Convection Heat Transfer Coefficient,hourly; !- Zone Average [W/m2-K]
Output:Variable,*,Surface Outside Face Net Thermal Radiation Heat Gain Rate,hourly; !- Zone Average [W]
Output:Variable,*,Surface Outside Face Net Thermal Radiation Heat Gain Rate per Area,hourly; !- Zone Average [W/m2]
Output:Variable,*,Surface Outside Face Net Thermal Radiation Heat Gain Energy,hourly; !- Zone Sum [J]
Output:Variable,*,Surface Outside Face Thermal Radiation to Air Heat Transfer Coefficient,hourly; !- Zone Average [W/m2-K]
Output:Variable,*,Surface Outside Face Thermal Radiation to Sky Heat Transfer Coefficient,hourly; !- Zone Average [W/m2-K]
Output:Variable,*,Surface Outside Face Thermal Radiation to Ground Heat Transfer Coefficient,hourly; !- Zone Average [W/m2-K]
Output:Variable,*,Surface Outside Face Thermal Radiation to Air Heat Transfer Rate,hourly; !- Zone Average [W]
Output:Variable,*,Surface Outside Face Heat Emission to Air Rate,hourly; !- Zone Average [W]
Output:Variable,*,Surface Outside Face Solar Radiation Heat Gain Rate,hourly; !- Zone Average [W]
Output:Variable,*,Surface Outside Face Solar Radiation Heat Gain Rate per Area,hourly; !- Zone Average [W/m2]
Output:Variable,*,Surface Outside Face Solar Radiation Heat Gain Energy,hourly; !- Zone Sum [J]
Output:Variable,*,Surface Inside Face Conduction Heat Transfer Rate,hourly; !- Zone Average [W]
Output:Variable,*,Surface Inside Face Conduction Heat Gain Rate,hourly; !- Zone Average [W]
Output:Variable,*,Surface Inside Face Conduction Heat Loss Rate,hourly; !- Zone Average [W]
Output:Variable,*,Surface Inside Face Conduction Heat Transfer Rate per Area,hourly; !- Zone Average [W/m2]
Output:Variable,*,Surface Inside Face Conduction Heat Transfer Energy,hourly; !- Zone Sum [J]
Output:Variable,*,Surface Outside Face Conduction Heat Transfer Rate,hourly; !- Zone Average [W]
Output:Variable,*,Surface Outside Face Conduction Heat Gain Rate,hourly; !- Zone Average [W]
Output:Variable,*,Surface Outside Face Conduction Heat Loss Rate,hourly; !- Zone Average [W]
Output:Variable,*,Surface Outside Face Conduction Heat Transfer Rate per Area,hourly; !- Zone Average [W/m2]
Output:Variable,*,Surface Outside Face Conduction Heat Transfer Energy,hourly; !- Zone Sum [J]
Output:Variable,*,Surface Average Face Conduction Heat Transfer Rate,hourly; !- Zone Average [W]
Output:Variable,*,Surface Average Face Conduction Heat Gain Rate,hourly; !- Zone Average [W]
Output:Variable,*,Surface Average Face Conduction Heat Loss Rate,hourly; !- Zone Average [W]
Output:Variable,*,Surface Average Face Conduction Heat Transfer Rate per Area,hourly; !- Zone Average [W/m2]
Output:Variable,*,Surface Average Face Conduction Heat Transfer Energy,hourly; !- Zone Sum [J]
Output:Variable,*,Surface Heat Storage Rate,hourly; !- Zone Average [W]
Output:Variable,*,Surface Heat Storage Gain Rate,hourly; !- Zone Average [W]
Output:Variable,*,Surface Heat Storage Loss Rate,hourly; !- Zone Average [W]
Output:Variable,*,Surface Heat Storage Rate per Area,hourly; !- Zone Average [W/m2]
Output:Variable,*,Surface Heat Storage Energy,hourly; !- Zone Sum [J]
Output:Variable,*,Surface Inside Face Beam Solar Radiation Heat Gain Rate,hourly; !- Zone Average [W]
Output:Variable,*,Surface Inside Face Convection Classification Index,hourly; !- Zone Average []
Output:Variable,*,Surface Inside Face Convection Model Equation Index,hourly; !- Zone Average []
Output:Variable,*,Surface Inside Face Convection Reference Air Index,hourly; !- Zone Average []
Output:Variable,*,Surface Outside Face Convection Classification Index,hourly; !- Zone Average []
Output:Variable,*,Surface Outside Face Forced Convection Model Equation Index,hourly; !- Zone Average []
Output:Variable,*,Surface Outside Face Natural Convection Model Equation Index,hourly; !- Zone Average []
Output:Variable,*,Surface Inside Face Heat Source Gain Rate per Area,hourly; !- Zone Average [W/m2]
Output:Variable,*,Surface Outside Face Heat Source Gain Rate per Area,hourly; !- Zone Average [W/m2]
Output:Variable,*,Surface Shading Device Is On Time Fraction,hourly; !- Zone Average []
Output:Variable,*,Surface Storm Window On Off Status,hourly; !- Zone Average []
Output:Variable,*,Surface Window Blind Slat Angle,hourly; !- Zone Average [deg]
Output:Variable,*,Zone Mean Radiant Temperature,hourly; !- Zone Average [C]
Output:Variable,*,Site Total Surface Heat Emission to Air,hourly; !- Zone Sum [J]
Output:Variable,*,Water Heater Tank Temperature,hourly; !- HVAC Average [C]
Output:Variable,*,Water Heater Final Tank Temperature,hourly; !- HVAC Average [C]
Output:Variable,*,Water Heater Heat Loss Rate,hourly; !- HVAC Average [W]
Output:Variable,*,Water Heater Heat Loss Energy,hourly; !- HVAC Sum [J]
Output:Variable,*,Water Heater Use Side Mass Flow Rate,hourly; !- HVAC Average [kg/s]
Output:Variable,*,Water Heater Use Side Inlet Temperature,hourly; !- HVAC Average [C]
Output:Variable,*,Water Heater Use Side Outlet Temperature,hourly; !- HVAC Average [C]
Output:Variable,*,Water Heater Use Side Heat Transfer Rate,hourly; !- HVAC Average [W]
Output:Variable,*,Water Heater Use Side Heat Transfer Energy,hourly; !- HVAC Sum [J]
Output:Variable,*,Water Heater Source Side Mass Flow Rate,hourly; !- HVAC Average [kg/s]
Output:Variable,*,Water Heater Source Side Inlet Temperature,hourly; !- HVAC Average [C]
Output:Variable,*,Water Heater Source Side Outlet Temperature,hourly; !- HVAC Average [C]
Output:Variable,*,Water Heater Source Side Heat Transfer Rate,hourly; !- HVAC Average [W]
Output:Variable,*,Water Heater Source Side Heat Transfer Energy,hourly; !- HVAC Sum [J]
Output:Variable,*,Water Heater Off Cycle Parasitic Tank Heat Transfer Rate,hourly; !- HVAC Average [W]
Output:Variable,*,Water Heater Off Cycle Parasitic Tank Heat Transfer Energy,hourly; !- HVAC Sum [J]
Output:Variable,*,Water Heater On Cycle Parasitic Tank Heat Transfer Rate,hourly; !- HVAC Average [W]
Output:Variable,*,Water Heater On Cycle Parasitic Tank Heat Transfer Energy,hourly; !- HVAC Sum [J]
Output:Variable,*,Water Heater Total Demand Heat Transfer Rate,hourly; !- HVAC Average [W]
Output:Variable,*,Water Heater Total Demand Heat Transfer Energy,hourly; !- HVAC Sum [J]
Output:Variable,*,Water Heater Heating Rate,hourly; !- HVAC Average [W]
Output:Variable,*,Water Heater Heating Energy,hourly; !- HVAC Sum [J]
Output:Variable,*,Water Heater Unmet Demand Heat Transfer Rate,hourly; !- HVAC Average [W]
Output:Variable,*,Water Heater Unmet Demand Heat Transfer Energy,hourly; !- HVAC Sum [J]
Output:Variable,*,Water Heater Venting Heat Transfer Rate,hourly; !- HVAC Average [W]
Output:Variable,*,Water Heater Venting Heat Transfer Energy,hourly; !- HVAC Sum [J]
Output:Variable,*,Water Heater Net Heat Transfer Rate,hourly; !- HVAC Average [W]
Output:Variable,*,Water Heater Net Heat Transfer Energy,hourly; !- HVAC Sum [J]
Output:Variable,*,Water Heater Cycle On Count,hourly; !- HVAC Sum []
Output:Variable,*,Water Heater Runtime Fraction,hourly; !- HVAC Average []
Output:Variable,*,Water Heater Part Load Ratio,hourly; !- HVAC Average []
Output:Variable,*,Water Heater Gas Rate,hourly; !- HVAC Average [W]
Output:Variable,*,Water Heater Gas Energy,hourly; !- HVAC Sum [J]
Output:Variable,*,Water Heater Off Cycle Parasitic Gas Rate,hourly; !- HVAC Average [W]
Output:Variable,*,Water Heater Off Cycle Parasitic Gas Energy,hourly; !- HVAC Sum [J]
Output:Variable,*,Water Heater On Cycle Parasitic Gas Rate,hourly; !- HVAC Average [W]
Output:Variable,*,Water Heater On Cycle Parasitic Gas Energy,hourly; !- HVAC Sum [J]
Output:Variable,*,Water Heater Water Volume Flow Rate,hourly; !- HVAC Average [m3/s]
Output:Variable,*,Water Heater Water Volume,hourly; !- HVAC Sum [m3]
Output:Variable,*,Water Heater Mains Water Volume,hourly; !- HVAC Sum [m3]
Output:Variable,*,Water Heater Heater 1 Heating Rate,hourly; !- HVAC Average [W]
Output:Variable,*,Water Heater Heater 2 Heating Rate,hourly; !- HVAC Average [W]
Output:Variable,*,Water Heater Heater 1 Heating Energy,hourly; !- HVAC Sum [J]
Output:Variable,*,Water Heater Heater 2 Heating Energy,hourly; !- HVAC Sum [J]
Output:Variable,*,Water Heater Heater 1 Cycle On Count,hourly; !- HVAC Sum []
Output:Variable,*,Water Heater Heater 2 Cycle On Count,hourly; !- HVAC Sum []
Output:Variable,*,Water Heater Heater 1 Runtime Fraction,hourly; !- HVAC Average []
Output:Variable,*,Water Heater Heater 2 Runtime Fraction,hourly; !- HVAC Average []
Output:Variable,*,Water Heater Temperature Node 1,hourly; !- HVAC Average [C]
Output:Variable,*,Water Heater Temperature Node 2,hourly; !- HVAC Average [C]
Output:Variable,*,Water Heater Temperature Node 3,hourly; !- HVAC Average [C]
Output:Variable,*,Water Heater Temperature Node 4,hourly; !- HVAC Average [C]
Output:Variable,*,Water Heater Temperature Node 5,hourly; !- HVAC Average [C]
Output:Variable,*,Water Heater Temperature Node 6,hourly; !- HVAC Average [C]
Output:Variable,*,Water Heater Temperature Node 7,hourly; !- HVAC Average [C]
Output:Variable,*,Water Heater Temperature Node 8,hourly; !- HVAC Average [C]
Output:Variable,*,Water Heater Temperature Node 9,hourly; !- HVAC Average [C]
Output:Variable,*,Water Heater Temperature Node 10,hourly; !- HVAC Average [C]
Output:Variable,*,Water Heater Final Temperature Node 1,hourly; !- HVAC Average [C]
Output:Variable,*,Water Heater Final Temperature Node 2,hourly; !- HVAC Average [C]
Output:Variable,*,Water Heater Final Temperature Node 3,hourly; !- HVAC Average [C]
Output:Variable,*,Water Heater Final Temperature Node 4,hourly; !- HVAC Average [C]
Output:Variable,*,Water Heater Final Temperature Node 5,hourly; !- HVAC Average [C]
Output:Variable,*,Water Heater Final Temperature Node 6,hourly; !- HVAC Average [C]
Output:Variable,*,Water Heater Final Temperature Node 7,hourly; !- HVAC Average [C]
Output:Variable,*,Water Heater Final Temperature Node 8,hourly; !- HVAC Average [C]
Output:Variable,*,Water Heater Final Temperature Node 9,hourly; !- HVAC Average [C]
Output:Variable,*,Water Heater Final Temperature Node 10,hourly; !- HVAC Average [C]
Output:Variable,*,Zone Mean Air Temperature,hourly; !- Zone Average [C]
Output:Variable,*,Zone Operative Temperature,hourly; !- Zone Average [C]
Output:Variable,*,Zone Mean Air Dewpoint Temperature,hourly; !- Zone Average [C]
Output:Variable,*,Zone Mean Air Humidity Ratio,hourly; !- Zone Average [kgWater/kgDryAir]
Output:Variable,*,Zone Air Heat Balance Internal Convective Heat Gain Rate,hourly; !- HVAC Average [W]
Output:Variable,*,Zone Air Heat Balance Surface Convection Rate,hourly; !- HVAC Average [W]
Output:Variable,*,Zone Air Heat Balance Interzone Air Transfer Rate,hourly; !- HVAC Average [W]
Output:Variable,*,Zone Air Heat Balance Outdoor Air Transfer Rate,hourly; !- HVAC Average [W]
Output:Variable,*,Zone Air Heat Balance System Air Transfer Rate,hourly; !- HVAC Average [W]
Output:Variable,*,Zone Air Heat Balance System Convective Heat Gain Rate,hourly; !- HVAC Average [W]
Output:Variable,*,Zone Air Heat Balance Air Energy Storage Rate,hourly; !- HVAC Average [W]
Output:Variable,*,Zone Exfiltration Heat Transfer Rate,hourly; !- HVAC Average [W]
Output:Variable,*,Zone Exfiltration Sensible Heat Transfer Rate,hourly; !- HVAC Average [W]
Output:Variable,*,Zone Exfiltration Latent Heat Transfer Rate,hourly; !- HVAC Average [W]
Output:Variable,*,Zone Exhaust Air Heat Transfer Rate,hourly; !- HVAC Average [W]
Output:Variable,*,Zone Exhaust Air Sensible Heat Transfer Rate,hourly; !- HVAC Average [W]
Output:Variable,*,Zone Exhaust Air Latent Heat Transfer Rate,hourly; !- HVAC Average [W]
Output:Variable,*,Site Total Zone Exfiltration Heat Loss,hourly; !- HVAC Sum [J]
Output:Variable,*,Site Total Zone Exhaust Air Heat Loss,hourly; !- HVAC Sum [J]
Output:Variable,*,Zone Infiltration Sensible Heat Loss Energy,hourly; !- HVAC Sum [J]
Output:Variable,*,Zone Infiltration Sensible Heat Gain Energy,hourly; !- HVAC Sum [J]
Output:Variable,*,Zone Infiltration Latent Heat Loss Energy,hourly; !- HVAC Sum [J]
Output:Variable,*,Zone Infiltration Latent Heat Gain Energy,hourly; !- HVAC Sum [J]
Output:Variable,*,Zone Infiltration Total Heat Loss Energy,hourly; !- HVAC Sum [J]
Output:Variable,*,Zone Infiltration Total Heat Gain Energy,hourly; !- HVAC Sum [J]
Output:Variable,*,Zone Infiltration Current Density Volume Flow Rate,hourly; !- HVAC Average [m3/s]
Output:Variable,*,Zone Infiltration Standard Density Volume Flow Rate,hourly; !- HVAC Average [m3/s]
Output:Variable,*,Zone Infiltration Current Density Volume,hourly; !- HVAC Sum [m3]
Output:Variable,*,Zone Infiltration Standard Density Volume,hourly; !- HVAC Sum [m3]
Output:Variable,*,Zone Infiltration Mass,hourly; !- HVAC Sum [kg]
Output:Variable,*,Zone Infiltration Mass Flow Rate,hourly; !- HVAC Average [kg/s]
Output:Variable,*,Zone Infiltration Air Change Rate,hourly; !- HVAC Average [ach]
Output:Variable,*,Zone Air System Sensible Heating Energy,hourly; !- HVAC Sum [J]
Output:Variable,*,Zone Air System Sensible Cooling Energy,hourly; !- HVAC Sum [J]
Output:Variable,*,Zone Air System Sensible Heating Rate,hourly; !- HVAC Average [W]
Output:Variable,*,Zone Air System Sensible Cooling Rate,hourly; !- HVAC Average [W]
Output:Variable,*,Zone Air Temperature,hourly; !- HVAC Average [C]
Output:Variable,*,Zone Thermostat Air Temperature,hourly; !- HVAC Average [C]
Output:Variable,*,Zone Air Humidity Ratio,hourly; !- HVAC Average []
Output:Variable,*,Zone Air Relative Humidity,hourly; !- HVAC Average [%]
Output:Variable,*,Zone Predicted Sensible Load to Setpoint Heat Transfer Rate,hourly; !- HVAC Average [W]
Output:Variable,*,Zone Predicted Sensible Load to Heating Setpoint Heat Transfer Rate,hourly; !- HVAC Average [W]
Output:Variable,*,Zone Predicted Sensible Load to Cooling Setpoint Heat Transfer Rate,hourly; !- HVAC Average [W]
Output:Variable,*,Zone Predicted Moisture Load Moisture Transfer Rate,hourly; !- HVAC Average [kgWater/s]
Output:Variable,*,Zone Predicted Moisture Load to Humidifying Setpoint Moisture Transfer Rate,hourly; !- HVAC Average [kgWater/s]
Output:Variable,*,Zone Predicted Moisture Load to Dehumidifying Setpoint Moisture Transfer Rate,hourly; !- HVAC Average [kgWater/s]
Output:Variable,*,Zone Thermostat Control Type,hourly; !- Zone Average []
Output:Variable,*,Zone Thermostat Heating Setpoint Temperature,hourly; !- HVAC Average [C]
Output:Variable,*,Zone Thermostat Cooling Setpoint Temperature,hourly; !- HVAC Average [C]
Output:Variable,*,Zone Adaptive Comfort Operative Temperature Set Point,hourly; !- Zone Average [C]
Output:Variable,*,Zone Predicted Sensible Load Room Air Correction Factor,hourly; !- HVAC Average []
Output:Variable,*,HVAC System Solver Iteration Count,hourly; !- HVAC Sum []
Output:Variable,*,Air System Solver Iteration Count,hourly; !- HVAC Sum []
Output:Variable,*,Plant System Cycle On Off Status,hourly; !- HVAC Average []
Output:Variable,*,Plant Supply Side Cooling Demand Rate,hourly; !- HVAC Average [W]
Output:Variable,*,Plant Supply Side Heating Demand Rate,hourly; !- HVAC Average [W]
Output:Variable,*,Plant Supply Side Inlet Mass Flow Rate,hourly; !- HVAC Average [kg/s]
Output:Variable,*,Plant Supply Side Inlet Temperature,hourly; !- HVAC Average [C]
Output:Variable,*,Plant Supply Side Outlet Temperature,hourly; !- HVAC Average [C]
Output:Variable,*,Plant Supply Side Not Distributed Demand Rate,hourly; !- HVAC Average [W]
Output:Variable,*,Plant Supply Side Unmet Demand Rate,hourly; !- HVAC Average [W]
Output:Variable,*,Debug Plant Loop Bypass Fraction,hourly; !- HVAC Average []
Output:Variable,*,Debug Plant Last Simulated Loop Side,hourly; !- HVAC Average []
Output:Variable,*,Plant Solver Sub Iteration Count,hourly; !- HVAC Sum []
Output:Variable,*,Plant Solver Half Loop Calls Count,hourly; !- HVAC Sum []
Output:Variable,*,Water Use Equipment Hot Water Mass Flow Rate,hourly; !- HVAC Average [kg/s]
Output:Variable,*,Water Use Equipment Cold Water Mass Flow Rate,hourly; !- HVAC Average [kg/s]
Output:Variable,*,Water Use Equipment Total Mass Flow Rate,hourly; !- HVAC Average [kg/s]
Output:Variable,*,Water Use Equipment Hot Water Volume Flow Rate,hourly; !- HVAC Average [m3/s]
Output:Variable,*,Water Use Equipment Cold Water Volume Flow Rate,hourly; !- HVAC Average [m3/s]
Output:Variable,*,Water Use Equipment Total Volume Flow Rate,hourly; !- HVAC Average [m3/s]
Output:Variable,*,Water Use Equipment Hot Water Volume,hourly; !- HVAC Sum [m3]
Output:Variable,*,Water Use Equipment Cold Water Volume,hourly; !- HVAC Sum [m3]
Output:Variable,*,Water Use Equipment Total Volume,hourly; !- HVAC Sum [m3]
Output:Variable,*,Water Use Equipment Mains Water Volume,hourly; !- HVAC Sum [m3]
Output:Variable,*,Water Use Equipment Hot Water Temperature,hourly; !- HVAC Average [C]
Output:Variable,*,Water Use Equipment Cold Water Temperature,hourly; !- HVAC Average [C]
Output:Variable,*,Water Use Equipment Target Water Temperature,hourly; !- HVAC Average [C]
Output:Variable,*,Water Use Equipment Mixed Water Temperature,hourly; !- HVAC Average [C]
Output:Variable,*,Water Use Equipment Drain Water Temperature,hourly; !- HVAC Average [C]
Output:Variable,*,Water Use Equipment Heating Rate,hourly; !- HVAC Average [W]
Output:Variable,*,Water Use Equipment Heating Energy,hourly; !- HVAC Sum [J]
Output:Variable,*,Water Use Equipment Zone Sensible Heat Gain Rate,hourly; !- HVAC Average [W]
Output:Variable,*,Water Use Equipment Zone Sensible Heat Gain Energy,hourly; !- HVAC Sum [J]
Output:Variable,*,Water Use Equipment Zone Latent Gain Rate,hourly; !- HVAC Average [W]
Output:Variable,*,Water Use Equipment Zone Latent Gain Energy,hourly; !- HVAC Sum [J]
Output:Variable,*,Water Use Equipment Zone Moisture Gain Mass Flow Rate,hourly; !- HVAC Average [kg/s]
Output:Variable,*,Water Use Equipment Zone Moisture Gain Mass,hourly; !- HVAC Sum [kg]
Output:Variable,*,Water Use Connections Hot Water Mass Flow Rate,hourly; !- HVAC Average [kg/s]
Output:Variable,*,Water Use Connections Cold Water Mass Flow Rate,hourly; !- HVAC Average [kg/s]
Output:Variable,*,Water Use Connections Total Mass Flow Rate,hourly; !- HVAC Average [kg/s]
Output:Variable,*,Water Use Connections Drain Water Mass Flow Rate,hourly; !- HVAC Average [kg/s]
Output:Variable,*,Water Use Connections Heat Recovery Mass Flow Rate,hourly; !- HVAC Average [kg/s]
Output:Variable,*,Water Use Connections Hot Water Volume Flow Rate,hourly; !- HVAC Average [m3/s]
Output:Variable,*,Water Use Connections Cold Water Volume Flow Rate,hourly; !- HVAC Average [m3/s]
Output:Variable,*,Water Use Connections Total Volume Flow Rate,hourly; !- HVAC Average [m3/s]
Output:Variable,*,Water Use Connections Hot Water Volume,hourly; !- HVAC Sum [m3]
Output:Variable,*,Water Use Connections Cold Water Volume,hourly; !- HVAC Sum [m3]
Output:Variable,*,Water Use Connections Total Volume,hourly; !- HVAC Sum [m3]
Output:Variable,*,Water Use Connections Hot Water Temperature,hourly; !- HVAC Average [C]
Output:Variable,*,Water Use Connections Cold Water Temperature,hourly; !- HVAC Average [C]
Output:Variable,*,Water Use Connections Drain Water Temperature,hourly; !- HVAC Average [C]
Output:Variable,*,Water Use Connections Return Water Temperature,hourly; !- HVAC Average [C]
Output:Variable,*,Water Use Connections Waste Water Temperature,hourly; !- HVAC Average [C]
Output:Variable,*,Water Use Connections Heat Recovery Water Temperature,hourly; !- HVAC Average [C]
Output:Variable,*,Water Use Connections Heat Recovery Effectiveness,hourly; !- HVAC Average []
Output:Variable,*,Water Use Connections Heat Recovery Rate,hourly; !- HVAC Average [W]
Output:Variable,*,Water Use Connections Heat Recovery Energy,hourly; !- HVAC Sum [J]
Output:Variable,*,Water Use Connections Plant Hot Water Energy,hourly; !- HVAC Sum [J]
Output:Variable,*,Generator Requested Electric Power,hourly; !- HVAC Average [W]
Output:Variable,*,Electric Load Center Produced Electric Power,hourly; !- HVAC Average [W]
Output:Variable,*,Electric Load Center Produced Electric Energy,hourly; !- HVAC Sum [J]
Output:Variable,*,Electric Load Center Supplied Electric Power,hourly; !- HVAC Average [W]
Output:Variable,*,Electric Load Center Drawn Electric Power,hourly; !- HVAC Average [W]
Output:Variable,*,Electric Load Center Produced Thermal Rate,hourly; !- HVAC Average [W]
Output:Variable,*,Electric Load Center Produced Thermal Energy,hourly; !- HVAC Sum [J]
Output:Variable,*,Electric Load Center Requested Electric Power,hourly; !- HVAC Average [W]
Output:Variable,*,Generator Produced Electric Power,hourly; !- HVAC Average [W]
Output:Variable,*,Generator Produced Electric Energy,hourly; !- HVAC Sum [J]
Output:Variable,*,Generator Produced Thermal Rate,hourly; !- HVAC Average [W]
Output:Variable,*,Generator Produced Thermal Energy,hourly; !- HVAC Sum [J]
Output:Variable,*,Generator Fuel HHV Basis Energy,hourly; !- HVAC Sum [J]
Output:Variable,*,Generator Fuel HHV Basis Rate,hourly; !- HVAC Average [W]
Output:Variable,*,Generator Zone Sensible Heat Transfer Rate,hourly; !- HVAC Average [W]
Output:Variable,*,Generator Zone Sensible Heat Transfer Energy,hourly; !- HVAC Sum [J]
Output:Variable,*,Generator Zone Convection Heat Transfer Rate,hourly; !- HVAC Average [W]
Output:Variable,*,Generator Zone Radiation Heat Transfer Rate,hourly; !- HVAC Average [W]
Output:Variable,*,Facility Total Purchased Electric Power,hourly; !- HVAC Average [W]
Output:Variable,*,Facility Total Purchased Electric Energy,hourly; !- HVAC Sum [J]
Output:Variable,*,Facility Total Surplus Electric Power,hourly; !- HVAC Average [W]
Output:Variable,*,Facility Total Surplus Electric Energy,hourly; !- HVAC Sum [J]
Output:Variable,*,Facility Net Purchased Electric Power,hourly; !- HVAC Average [W]
Output:Variable,*,Facility Net Purchased Electric Energy,hourly; !- HVAC Sum [J]
Output:Variable,*,Facility Total Building Electric Demand Power,hourly; !- HVAC Average [W]
Output:Variable,*,Facility Total HVAC Electric Demand Power,hourly; !- HVAC Average [W]
Output:Variable,*,Facility Total Electric Demand Power,hourly; !- HVAC Average [W]
Output:Variable,*,Facility Total Produced Electric Power,hourly; !- HVAC Average [W]
Output:Variable,*,Facility Total Produced Electric Energy,hourly; !- HVAC Sum [J]
Output:Variable,*,Generator Off Mode Time,hourly; !- HVAC Sum [s]
Output:Variable,*,Generator Standby Mode Time,hourly; !- HVAC Sum [s]
Output:Variable,*,Generator Warm Up Mode Time,hourly; !- HVAC Sum [s]
Output:Variable,*,Generator Normal Operating Mode Time,hourly; !- HVAC Sum [s]
Output:Variable,*,Generator Cool Down Mode Time,hourly; !- HVAC Sum [s]
Output:Variable,*,Generator Electric Efficiency,hourly; !- HVAC Average []
Output:Variable,*,Generator Thermal Efficiency,hourly; !- HVAC Average []
Output:Variable,*,Generator Gross Input Heat Rate,hourly; !- HVAC Average [W]
Output:Variable,*,Generator Steady State Engine Heat Generation Rate,hourly; !- HVAC Average [W]
Output:Variable,*,Generator Engine Heat Exchange Rate,hourly; !- HVAC Average [W]
Output:Variable,*,Generator Air Mass Flow Rate,hourly; !- HVAC Average [kg/s]
Output:Variable,*,Generator Fuel Molar Flow Rate,hourly; !- HVAC Average [kmol/s]
Output:Variable,*,Generator Fuel Mass Flow Rate,hourly; !- HVAC Average [kg/s]
Output:Variable,*,Generator Engine Temperature,hourly; !- HVAC Average [C]
Output:Variable,*,Generator Coolant Inlet Temperature,hourly; !- HVAC Average [C]
Output:Variable,*,Generator Coolant Outlet Temperature,hourly; !- HVAC Average [C]
Output:Variable,*,Generator Fuel LHV Basis Energy,hourly; !- HVAC Sum [J]
Output:Variable,*,Generator Fuel LHV Basis Rate,hourly; !- HVAC Average [W]
Output:Variable,*,Generator Fuel Compressor Electric Power,hourly; !- HVAC Average [W]
Output:Variable,*,Generator Fuel Compressor Electric Energy,hourly; !- HVAC Sum [J]
Output:Variable,*,Generator Fuel Compressor Skin Heat Loss Rate,hourly; !- HVAC Average [W]
Output:Variable,*,Generator Gas Rate,hourly; !- HVAC Average [W]
Output:Variable,*,Generator Gas Energy,hourly; !- HVAC Sum [J]
Output:Variable,*,Generator Gas Mass Flow Rate,hourly; !- HVAC Average [kg/s]
Output:Variable,*,Generator Exhaust Air Temperature,hourly; !- HVAC Average [C]
Output:Variable,*,Zone Oscillating Temperatures Time,hourly; !- HVAC Sum [hr]
Output:Variable,*,Facility Any Zone Oscillating Temperatures Time,hourly; !- HVAC Sum [hr]
Output:Variable,*,Zone Thermal Comfort Fanger Model PMV,hourly; !- Zone Average []
Output:Variable,*,Zone Thermal Comfort Fanger Model PPD,hourly; !- Zone Average [%]
Output:Variable,*,Zone Thermal Comfort Clothing Surface Temperature,hourly; !- Zone Average [C]
Output:Variable,*,Zone Thermal Comfort Mean Radiant Temperature,hourly; !- Zone Average [C]
Output:Variable,*,Zone Thermal Comfort Operative Temperature,hourly; !- Zone Average [C]
Output:Variable,*,Zone Thermal Comfort Clothing Value,hourly; !- Zone Average [clo]
Output:Variable,*,Zone Thermal Comfort ASHRAE 55 Simple Model Summer Clothes Not Comfortable Time,hourly; !- Zone Sum [hr]
Output:Variable,*,Zone Thermal Comfort ASHRAE 55 Simple Model Winter Clothes Not Comfortable Time,hourly; !- Zone Sum [hr]
Output:Variable,*,Zone Thermal Comfort ASHRAE 55 Simple Model Summer or Winter Clothes Not Comfortable Time,hourly; !- Zone Sum [hr]
Output:Variable,*,Facility Thermal Comfort ASHRAE 55 Simple Model Summer Clothes Not Comfortable Time,hourly; !- Zone Sum [hr]
Output:Variable,*,Facility Thermal Comfort ASHRAE 55 Simple Model Winter Clothes Not Comfortable Time,hourly; !- Zone Sum [hr]
Output:Variable,*,Facility Thermal Comfort ASHRAE 55 Simple Model Summer or Winter Clothes Not Comfortable Time,hourly; !- Zone Sum [hr]
Output:Variable,*,Zone Heating Setpoint Not Met Time,hourly; !- Zone Sum [hr]
Output:Variable,*,Zone Heating Setpoint Not Met While Occupied Time,hourly; !- Zone Sum [hr]
Output:Variable,*,Zone Cooling Setpoint Not Met Time,hourly; !- Zone Sum [hr]
Output:Variable,*,Zone Cooling Setpoint Not Met While Occupied Time,hourly; !- Zone Sum [hr]
Output:Variable,*,Facility Heating Setpoint Not Met Time,hourly; !- Zone Sum [hr]
Output:Variable,*,Facility Cooling Setpoint Not Met Time,hourly; !- Zone Sum [hr]
Output:Variable,*,Facility Heating Setpoint Not Met While Occupied Time,hourly; !- Zone Sum [hr]
Output:Variable,*,Facility Cooling Setpoint Not Met While Occupied Time,hourly; !- Zone Sum [hr]
Output:Variable,*,Schedule Value,hourly; !- Zone Average []
Output:Variable,*,Fan Electric Power,hourly; !- HVAC Average [W]
Output:Variable,*,Fan Rise in Air Temperature,hourly; !- HVAC Average [deltaC]
Output:Variable,*,Fan Heat Gain to Air,hourly; !- HVAC Average [W]
Output:Variable,*,Fan Electric Energy,hourly; !- HVAC Sum [J]
Output:Variable,*,Fan Air Mass Flow Rate,hourly; !- HVAC Average [kg/s]
Output:Variable,*,Fan Runtime Fraction,hourly; !- HVAC Average []
Output:Variable,*,Heating Coil Heating Energy,hourly; !- HVAC Sum [J]
Output:Variable,*,Heating Coil Source Side Heat Transfer Energy,hourly; !- HVAC Sum [J]
Output:Variable,*,Heating Coil Heating Rate,hourly; !- HVAC Average [W]
Output:Variable,*,Heating Coil U Factor Times Area Value,hourly; !- HVAC Average [W/K]
Output:Variable,*,Cooling Coil Total Cooling Rate,hourly; !- HVAC Average [W]
Output:Variable,*,Cooling Coil Total Cooling Energy,hourly; !- HVAC Sum [J]
Output:Variable,*,Cooling Coil Sensible Cooling Rate,hourly; !- HVAC Average [W]
Output:Variable,*,Cooling Coil Sensible Cooling Energy,hourly; !- HVAC Sum [J]
Output:Variable,*,Cooling Coil Latent Cooling Rate,hourly; !- HVAC Average [W]
Output:Variable,*,Cooling Coil Latent Cooling Energy,hourly; !- HVAC Sum [J]
Output:Variable,*,Cooling Coil Electric Power,hourly; !- HVAC Average [W]
Output:Variable,*,Cooling Coil Electric Energy,hourly; !- HVAC Sum [J]
Output:Variable,*,Cooling Coil Runtime Fraction,hourly; !- HVAC Average []
Output:Variable,*,Zone Packaged Terminal Air Conditioner Total Heating Rate,hourly; !- HVAC Average [W]
Output:Variable,*,Zone Packaged Terminal Air Conditioner Total Heating Energy,hourly; !- HVAC Sum [J]
Output:Variable,*,Zone Packaged Terminal Air Conditioner Total Cooling Rate,hourly; !- HVAC Average [W]
Output:Variable,*,Zone Packaged Terminal Air Conditioner Total Cooling Energy,hourly; !- HVAC Sum [J]
Output:Variable,*,Zone Packaged Terminal Air Conditioner Sensible Heating Rate,hourly; !- HVAC Average [W]
Output:Variable,*,Zone Packaged Terminal Air Conditioner Sensible Heating Energy,hourly; !- HVAC Sum [J]
Output:Variable,*,Zone Packaged Terminal Air Conditioner Sensible Cooling Rate,hourly; !- HVAC Average [W]
Output:Variable,*,Zone Packaged Terminal Air Conditioner Sensible Cooling Energy,hourly; !- HVAC Sum [J]
Output:Variable,*,Zone Packaged Terminal Air Conditioner Latent Heating Rate,hourly; !- HVAC Average [W]
Output:Variable,*,Zone Packaged Terminal Air Conditioner Latent Heating Energy,hourly; !- HVAC Sum [J]
Output:Variable,*,Zone Packaged Terminal Air Conditioner Latent Cooling Rate,hourly; !- HVAC Average [W]
Output:Variable,*,Zone Packaged Terminal Air Conditioner Latent Cooling Energy,hourly; !- HVAC Sum [J]
Output:Variable,*,Zone Packaged Terminal Air Conditioner Electric Power,hourly; !- HVAC Average [W]
Output:Variable,*,Zone Packaged Terminal Air Conditioner Electric Energy,hourly; !- HVAC Sum [J]
Output:Variable,*,Zone Packaged Terminal Air Conditioner Fan Part Load Ratio,hourly; !- HVAC Average []
Output:Variable,*,Zone Packaged Terminal Air Conditioner Compressor Part Load Ratio,hourly; !- HVAC Average []
Output:Variable,*,Zone Packaged Terminal Air Conditioner Fan Availability Status,hourly; !- HVAC Average []
Output:Variable,*,Exterior Lights Electric Power,hourly; !- Zone Average [W]
Output:Variable,*,Exterior Lights Electric Energy,hourly; !- Zone Sum [J]
Output:Variable,*,Exterior Equipment Fuel Rate,hourly; !- Zone Average [W]
Output:Variable,*,Exterior Equipment Electric Energy,hourly; !- Zone Sum [J]
Output:Variable,*,Air System Simulation Maximum Iteration Count,hourly; !- HVAC Sum []
Output:Variable,*,Air System Simulation Iteration Count,hourly; !- HVAC Sum []
Output:Variable,*,Air System Component Model Simulation Calls,hourly; !- HVAC Sum []
Output:Variable,*,Cooling Coil Crankcase Heater Electric Power,hourly; !- HVAC Average [W]
Output:Variable,*,Cooling Coil Crankcase Heater Electric Energy,hourly; !- HVAC Sum [J]
Output:Variable,*,Pump Electric Energy,hourly; !- HVAC Sum [J]
Output:Variable,*,Pump Electric Power,hourly; !- HVAC Average [W]
Output:Variable,*,Pump Shaft Power,hourly; !- HVAC Average [W]
Output:Variable,*,Pump Fluid Heat Gain Rate,hourly; !- HVAC Average [W]
Output:Variable,*,Pump Fluid Heat Gain Energy,hourly; !- HVAC Sum [J]
Output:Variable,*,Pump Outlet Temperature,hourly; !- HVAC Average [C]
Output:Variable,*,Pump Mass Flow Rate,hourly; !- HVAC Average [kg/s]
Output:Variable,*,Performance Curve Input Variable 1 Value,hourly; !- HVAC Average []
Output:Variable,*,Performance Curve Input Variable 2 Value,hourly; !- HVAC Average []
Output:Variable,*,Performance Curve Output Value,hourly; !- HVAC Average []
Output:Variable,*,Performance Curve Input Variable 3 Value,hourly; !- HVAC Average []
Output:Variable,*,System Node Temperature,hourly; !- HVAC Average [C]
Output:Variable,*,System Node Mass Flow Rate,hourly; !- HVAC Average [kg/s]
Output:Variable,*,System Node Humidity Ratio,hourly; !- HVAC Average [kgWater/kgDryAir]
Output:Variable,*,System Node Setpoint Temperature,hourly; !- HVAC Average [C]
Output:Variable,*,System Node Setpoint High Temperature,hourly; !- HVAC Average [C]
Output:Variable,*,System Node Setpoint Low Temperature,hourly; !- HVAC Average [C]
Output:Variable,*,System Node Setpoint Humidity Ratio,hourly; !- HVAC Average [kgWater/kgDryAir]
Output:Variable,*,System Node Setpoint Minimum Humidity Ratio,hourly; !- HVAC Average [kgWater/kgDryAir]
Output:Variable,*,System Node Setpoint Maximum Humidity Ratio,hourly; !- HVAC Average [kgWater/kgDryAir]
Output:Variable,*,System Node Relative Humidity,hourly; !- HVAC Average [%]
Output:Variable,*,System Node Pressure,hourly; !- HVAC Average [Pa]
Output:Variable,*,System Node Standard Density Volume Flow Rate,hourly; !- HVAC Average [m3/s]
Output:Variable,*,System Node Current Density Volume Flow Rate,hourly; !- HVAC Average [m3/s]
Output:Variable,*,System Node Current Density,hourly; !- HVAC Average [kg/m3]
Output:Variable,*,System Node Specific Heat,hourly; !- HVAC Average [J/kg-K]
Output:Variable,*,System Node Enthalpy,hourly; !- HVAC Average [J/kg]
Output:Variable,*,System Node Wetbulb Temperature,hourly; !- HVAC Average [C]
Output:Variable,*,System Node Dewpoint Temperature,hourly; !- HVAC Average [C]
Output:Variable,*,System Node Wind Speed,hourly; !- HVAC Average [m/s]
Output:Variable,*,System Node Wind Direction,hourly; !- HVAC Average [deg]
Output:Variable,*,System Node Quality,hourly; !- HVAC Average []
Output:Variable,*,System Node Height,hourly; !- HVAC Average [m]
Output:Variable,*,Environmental Impact Electricity Source Energy,hourly; !- HVAC Sum [J]
Output:Variable,*,Environmental Impact Electricity CO2 Emissions Mass,hourly; !- HVAC Sum [kg]
Output:Variable,*,Environmental Impact Electricity CO Emissions Mass,hourly; !- HVAC Sum [kg]
Output:Variable,*,Environmental Impact Electricity CH4 Emissions Mass,hourly; !- HVAC Sum [kg]
Output:Variable,*,Environmental Impact Electricity NOx Emissions Mass,hourly; !- HVAC Sum [kg]
Output:Variable,*,Environmental Impact Electricity N2O Emissions Mass,hourly; !- HVAC Sum [kg]
Output:Variable,*,Environmental Impact Electricity SO2 Emissions Mass,hourly; !- HVAC Sum [kg]
Output:Variable,*,Environmental Impact Electricity PM Emissions Mass,hourly; !- HVAC Sum [kg]
Output:Variable,*,Environmental Impact Electricity PM10 Emissions Mass,hourly; !- HVAC Sum [kg]
Output:Variable,*,Environmental Impact Electricity PM2.5 Emissions Mass,hourly; !- HVAC Sum [kg]
Output:Variable,*,Environmental Impact Electricity NH3 Emissions Mass,hourly; !- HVAC Sum [kg]
Output:Variable,*,Environmental Impact Electricity NMVOC Emissions Mass,hourly; !- HVAC Sum [kg]
Output:Variable,*,Environmental Impact Electricity Hg Emissions Mass,hourly; !- HVAC Sum [kg]
Output:Variable,*,Environmental Impact Electricity Pb Emissions Mass,hourly; !- HVAC Sum [kg]
Output:Variable,*,Environmental Impact Electricity Water Consumption Volume,hourly; !- HVAC Sum [L]
Output:Variable,*,Environmental Impact Electricity Nuclear High Level Waste Mass,hourly; !- HVAC Sum [kg]
Output:Variable,*,Environmental Impact Electricity Nuclear Low Level Waste Volume,hourly; !- HVAC Sum [m3]
Output:Variable,*,Environmental Impact Purchased Electricity Source Energy,hourly; !- HVAC Sum [J]
Output:Variable,*,Environmental Impact Surplus Sold Electricity Source,hourly; !- HVAC Sum [J]
Output:Variable,*,Environmental Impact Natural Gas Source Energy,hourly; !- HVAC Sum [J]
Output:Variable,*,Environmental Impact Natural Gas CO2 Emissions Mass,hourly; !- HVAC Sum [kg]
Output:Variable,*,Environmental Impact Natural Gas CO Emissions Mass,hourly; !- HVAC Sum [kg]
Output:Variable,*,Environmental Impact Natural Gas CH4 Emissions Mass,hourly; !- HVAC Sum [kg]
Output:Variable,*,Environmental Impact Natural Gas NOx Emissions Mass,hourly; !- HVAC Sum [kg]
Output:Variable,*,Environmental Impact Natural Gas N2O Emissions Mass,hourly; !- HVAC Sum [kg]
Output:Variable,*,Environmental Impact Natural Gas SO2 Emissions Mass,hourly; !- HVAC Sum [kg]
Output:Variable,*,Environmental Impact Natural Gas PM Emissions Mass,hourly; !- HVAC Sum [kg]
Output:Variable,*,Environmental Impact Natural Gas PM10 Emissions Mass,hourly; !- HVAC Sum [kg]
Output:Variable,*,Environmental Impact Natural Gas PM2.5 Emissions Mass,hourly; !- HVAC Sum [kg]
Output:Variable,*,Environmental Impact Natural Gas NH3 Emissions Mass,hourly; !- HVAC Sum [kg]
Output:Variable,*,Environmental Impact Natural Gas NMVOC Emissions Mass,hourly; !- HVAC Sum [kg]
Output:Variable,*,Environmental Impact Natural Gas Hg Emissions Mass,hourly; !- HVAC Sum [kg]
Output:Variable,*,Environmental Impact Natural Gas Pb Emissions Mass,hourly; !- HVAC Sum [kg]
Output:Variable,*,Environmental Impact Natural Gas Water Consumption Volume,hourly; !- HVAC Sum [L]
Output:Variable,*,Environmental Impact Natural Gas Nuclear High Level Waste Mass,hourly; !- HVAC Sum [kg]
Output:Variable,*,Environmental Impact Natural Gas Nuclear Low Level Waste Volume,hourly; !- HVAC Sum [m3]
Output:Variable,*,Environmental Impact Fuel Oil #1 Source Energy,hourly; !- HVAC Sum [J]
Output:Variable,*,Environmental Impact Fuel Oil #1 CO2 Emissions Mass,hourly; !- HVAC Sum [kg]
Output:Variable,*,Environmental Impact Fuel Oil #1 CO Emissions Mass,hourly; !- HVAC Sum [kg]
Output:Variable,*,Environmental Impact Fuel Oil #1 CH4 Emissions Mass,hourly; !- HVAC Sum [kg]
Output:Variable,*,Environmental Impact Fuel Oil #1 NOx Emissions Mass,hourly; !- HVAC Sum [kg]
Output:Variable,*,Environmental Impact Fuel Oil #1 N2O Emissions Mass,hourly; !- HVAC Sum [kg]
Output:Variable,*,Environmental Impact Fuel Oil #1 SO2 Emissions Mass,hourly; !- HVAC Sum [kg]
Output:Variable,*,Environmental Impact Fuel Oil #1 PM Emissions Mass,hourly; !- HVAC Sum [kg]
Output:Variable,*,Environmental Impact Fuel Oil #1 PM10 Emissions Mass,hourly; !- HVAC Sum [kg]
Output:Variable,*,Environmental Impact Fuel Oil #1 PM2.5 Emissions Mass,hourly; !- HVAC Sum [kg]
Output:Variable,*,Environmental Impact Fuel Oil #1 NH3 Emissions Mass,hourly; !- HVAC Sum [kg]
Output:Variable,*,Environmental Impact Fuel Oil #1 NMVOC Emissions Mass,hourly; !- HVAC Sum [kg]
Output:Variable,*,Environmental Impact Fuel Oil #1 Hg Emissions Mass,hourly; !- HVAC Sum [kg]
Output:Variable,*,Environmental Impact Fuel Oil #1 Pb Emissions Mass,hourly; !- HVAC Sum [kg]
Output:Variable,*,Environmental Impact Fuel Oil #1 Water Consumption Volume,hourly; !- HVAC Sum [L]
Output:Variable,*,Environmental Impact Fuel Oil #1 Nuclear High Level Waste Mass,hourly; !- HVAC Sum [kg]
Output:Variable,*,Environmental Impact Fuel Oil #1 Nuclear Low Level Waste Volume,hourly; !- HVAC Sum [m3]
Output:Variable,*,Environmental Impact Propane Source Energy,hourly; !- HVAC Sum [J]
Output:Variable,*,Environmental Impact Propane CO2 Emissions Mass,hourly; !- HVAC Sum [kg]
Output:Variable,*,Environmental Impact Propane CO Emissions Mass,hourly; !- HVAC Sum [kg]
Output:Variable,*,Environmental Impact Propane CH4 Emissions Mass,hourly; !- HVAC Sum [kg]
Output:Variable,*,Environmental Impact Propane NOx Emissions Mass,hourly; !- HVAC Sum [kg]
Output:Variable,*,Environmental Impact Propane N2O Emissions Mass,hourly; !- HVAC Sum [kg]
Output:Variable,*,Environmental Impact Propane SO2 Emissions Mass,hourly; !- HVAC Sum [kg]
Output:Variable,*,Environmental Impact Propane PM Emissions Mass,hourly; !- HVAC Sum [kg]
Output:Variable,*,Environmental Impact Propane PM10 Emissions Mass,hourly; !- HVAC Sum [kg]
Output:Variable,*,Environmental Impact Propane PM2.5 Emissions Mass,hourly; !- HVAC Sum [kg]
Output:Variable,*,Environmental Impact Propane NH3 Emissions Mass,hourly; !- HVAC Sum [kg]
Output:Variable,*,Environmental Impact Propane NMVOC Emissions Mass,hourly; !- HVAC Sum [kg]
Output:Variable,*,Environmental Impact Propane Hg Emissions Mass,hourly; !- HVAC Sum [kg]
Output:Variable,*,Environmental Impact Propane Pb Emissions Mass,hourly; !- HVAC Sum [kg]
Output:Variable,*,Environmental Impact Propane Water Consumption Volume,hourly; !- HVAC Sum [L]
Output:Variable,*,Environmental Impact Propane Nuclear High Level Waste Mass,hourly; !- HVAC Sum [kg]
Output:Variable,*,Environmental Impact Propane Nuclear Low Level Waste Volume,hourly; !- HVAC Sum [m3]
Output:Variable,*,Environmental Impact Total N2O Emissions Carbon Equivalent Mass,hourly; !- HVAC Sum [kg]
Output:Variable,*,Environmental Impact Total CH4 Emissions Carbon Equivalent Mass,hourly; !- HVAC Sum [kg]
Output:Variable,*,Environmental Impact Total CO2 Emissions Carbon Equivalent Mass,hourly; !- HVAC Sum [kg]
Output:Variable,*,Air System Relief Air Total Heat Loss Energy,hourly; !- HVAC Sum [J]
Output:Variable,*,HVAC System Total Heat Rejection Energy,hourly; !- HVAC Sum [J]
Output:Variable,*,Zone Mechanical Ventilation No Load Heat Removal Energy,hourly; !- HVAC Sum [J]
Output:Variable,*,Zone Mechanical Ventilation Cooling Load Increase Energy,hourly; !- HVAC Sum [J]
Output:Variable,*,Zone Mechanical Ventilation Cooling Load Increase Due to Overheating Energy,hourly; !- HVAC Sum [J]
Output:Variable,*,Zone Mechanical Ventilation Cooling Load Decrease Energy,hourly; !- HVAC Sum [J]
Output:Variable,*,Zone Mechanical Ventilation No Load Heat Addition Energy,hourly; !- HVAC Sum [J]
Output:Variable,*,Zone Mechanical Ventilation Heating Load Increase Energy,hourly; !- HVAC Sum [J]
Output:Variable,*,Zone Mechanical Ventilation Heating Load Increase Due to Overcooling Energy,hourly; !- HVAC Sum [J]
Output:Variable,*,Zone Mechanical Ventilation Heating Load Decrease Energy,hourly; !- HVAC Sum [J]
Output:Variable,*,Zone Mechanical Ventilation Mass Flow Rate,hourly; !- HVAC Average [kg/s]
Output:Variable,*,Zone Mechanical Ventilation Mass,hourly; !- HVAC Sum [kg]
Output:Variable,*,Zone Mechanical Ventilation Standard Density Volume Flow Rate,hourly; !- HVAC Average [m3/s]
Output:Variable,*,Zone Mechanical Ventilation Standard Density Volume,hourly; !- HVAC Sum [m3]
Output:Variable,*,Zone Mechanical Ventilation Current Density Volume Flow Rate,hourly; !- HVAC Average [m3/s]
Output:Variable,*,Zone Mechanical Ventilation Current Density Volume,hourly; !- HVAC Sum [m3]
Output:Variable,*,Zone Mechanical Ventilation Air Changes per Hour,hourly; !- HVAC Average [ach]
