Program Version,EnergyPlus, Version 9.0.1-bb7ca4f0da, YMD=2020.05.03 21:10
! <Version>, Version ID
 Version, 9.1
! <Timesteps per Hour>, #TimeSteps, Minutes per TimeStep {minutes}
 Timesteps per Hour, 60,  1
! <System Convergence Limits>, Minimum System TimeStep {minutes}, Max HVAC Iterations, Minimum Plant Iterations, Maximum Plant Iterations
 System Convergence Limits, 1, 25, 3, 10
! <Simulation Control>, Do Zone Sizing, Do System Sizing, Do Plant Sizing, Do Design Days, Do Weather Simulation, Do HVAC Sizing Simulation
 Simulation Control, Yes, Yes, Yes, Yes, No, No
! <Output Reporting Tolerances>, Tolerance for Time Heating Setpoint Not Met, Tolerance for Zone Cooling Setpoint Not Met Time
 Output Reporting Tolerances, 0.200, 0.200, 
! <Site:GroundTemperature:BuildingSurface>,Jan{C},Feb{C},Mar{C},Apr{C},May{C},Jun{C},Jul{C},Aug{C},Sep{C},Oct{C},Nov{C},Dec{C}
 Site:GroundTemperature:BuildingSurface,  20.00,  19.99,  20.02,  20.05,  20.09,  20.16,  20.19,  20.22,  20.23,  20.22,  20.19,  20.15
! <Site:GroundTemperature:FCfactorMethod>,Jan{C},Feb{C},Mar{C},Apr{C},May{C},Jun{C},Jul{C},Aug{C},Sep{C},Oct{C},Nov{C},Dec{C}
 Site:GroundTemperature:FCfactorMethod,  -1.89,  -3.06,  -0.99,   2.23,  10.68,  17.20,  21.60,  22.94,  20.66,  15.60,   8.83,   2.56
! <Site:GroundTemperature:Shallow>,Jan{C},Feb{C},Mar{C},Apr{C},May{C},Jun{C},Jul{C},Aug{C},Sep{C},Oct{C},Nov{C},Dec{C}
 Site:GroundTemperature:Shallow,  13.00,  13.00,  13.00,  13.00,  13.00,  13.00,  13.00,  13.00,  13.00,  13.00,  13.00,  13.00
! <Site:GroundTemperature:Deep>,Jan{C},Feb{C},Mar{C},Apr{C},May{C},Jun{C},Jul{C},Aug{C},Sep{C},Oct{C},Nov{C},Dec{C}
 Site:GroundTemperature:Deep,  16.00,  16.00,  16.00,  16.00,  16.00,  16.00,  16.00,  16.00,  16.00,  16.00,  16.00,  16.00
! <Site:GroundReflectance>,Jan{dimensionless},Feb{dimensionless},Mar{dimensionless},Apr{dimensionless},May{dimensionless},Jun{dimensionless},Jul{dimensionless},Aug{dimensionless},Sep{dimensionless},Oct{dimensionless},Nov{dimensionless},Dec{dimensionless}
 Site:GroundReflectance,  0.20,  0.20,  0.20,  0.20,  0.20,  0.20,  0.20,  0.20,  0.20,  0.20,  0.20,  0.20
! <Site:GroundReflectance:SnowModifier>, Normal, Daylighting {dimensionless}
 Site:GroundReflectance:SnowModifier,   1.000,   1.000
! <Site:GroundReflectance:Snow>,Jan{dimensionless},Feb{dimensionless},Mar{dimensionless},Apr{dimensionless},May{dimensionless},Jun{dimensionless},Jul{dimensionless},Aug{dimensionless},Sep{dimensionless},Oct{dimensionless},Nov{dimensionless},Dec{dimensionless}
 Site:GroundReflectance:Snow,  0.20,  0.20,  0.20,  0.20,  0.20,  0.20,  0.20,  0.20,  0.20,  0.20,  0.20,  0.20
! <Site:GroundReflectance:Snow:Daylighting>,Jan{dimensionless},Feb{dimensionless},Mar{dimensionless},Apr{dimensionless},May{dimensionless},Jun{dimensionless},Jul{dimensionless},Aug{dimensionless},Sep{dimensionless},Oct{dimensionless},Nov{dimensionless},Dec{dimensionless}
 Site:GroundReflectance:Snow:Daylighting,  0.20,  0.20,  0.20,  0.20,  0.20,  0.20,  0.20,  0.20,  0.20,  0.20,  0.20,  0.20
! <Environment:Weather Station>,Wind Sensor Height Above Ground {m},Wind Speed Profile Exponent {},Wind Speed Profile Boundary Layer Thickness {m},Air Temperature Sensor Height Above Ground {m},Wind Speed Modifier Coefficient-Internal,Temperature Modifier Coefficient-Internal
Environment:Weather Station,10.000,0.140,270.000,1.500,1.586,9.750E-003
! <Site:Location>, Location Name, Latitude {N+/S- Deg}, Longitude {E+/W- Deg},  Time Zone Number {GMT+/-}, Elevation {m},  Standard Pressure at Elevation {Pa}, Standard RhoAir at Elevation
Site:Location,Chicago Ohare Intl Ap IL USA TMY3 WMO#=725300,41.98,-87.92,-6.00,201.00,98934,1.1759
! <Site Water Mains Temperature Information>,Calculation Method{},Water Mains Temperature Schedule Name{},Annual Average Outdoor Air Temperature{C},Maximum Difference In Monthly Average Outdoor Air Temperatures{deltaC},Fixed Default Water Mains Temperature{C}
Site Water Mains Temperature Information,Correlation,NA,12.08,25.80,NA
! <Building Information>, Building Name,North Axis {deg},Terrain,  Loads Convergence Tolerance Value,Temperature Convergence Tolerance Value,  Solar Distribution,Maximum Number of Warmup Days,Minimum Number of Warmup Days
 Building Information,All,158.434,City,4.00000E-002,0.20000,FullInteriorAndExterior,25,6
! <Inside Convection Algorithm>, Algorithm {Simple | TARP | CeilingDiffuser | AdaptiveConvectionAlgorithm}
Inside Convection Algorithm,TARP
! <Outside Convection Algorithm>, Algorithm {SimpleCombined | TARP | MoWitt | DOE-2 | AdaptiveConvectionAlgorithm}
Outside Convection Algorithm,DOE-2
! <Sky Radiance Distribution>, Value {Anisotropic}
Sky Radiance Distribution,Anisotropic
! <Zone Air Solution Algorithm>, Value {ThirdOrderBackwardDifference | AnalyticalSolution | EulerMethod}
 Zone Air Solution Algorithm, ThirdOrderBackwardDifference
! <Zone Air Carbon Dioxide Balance Simulation>, Simulation {Yes/No}, Carbon Dioxide Concentration
 Zone Air Carbon Dioxide Balance Simulation, No,N/A
! <Zone Air Generic Contaminant Balance Simulation>, Simulation {Yes/No}, Generic Contaminant Concentration
 Zone Air Generic Contaminant Balance Simulation, No,N/A
! <Zone Air Mass Flow Balance Simulation>, Enforce Mass Balance, Adjust Zone Mixing, Adjust Zone Infiltration {AddInfiltration | AdjustInfiltration | None}, Infiltration Zones {MixingSourceZonesOnly | AllZones}
 Zone Air Mass Flow Balance Simulation, No,N/A,N/A,N/A
! <HVACSystemRootFindingAlgorithm>, Value {RegulaFalsi | Bisection | BisectionThenRegulaFalsi | RegulaFalsiThenBisection}
 HVACSystemRootFindingAlgorithm, RegulaFalsi
! <Environment:Site Atmospheric Variation>,Wind Speed Profile Exponent {},Wind Speed Profile Boundary Layer Thickness {m},Air Temperature Gradient Coefficient {K/m}
Environment:Site Atmospheric Variation,0.330,460.000,6.500000E-003
! <Surface Geometry>,Starting Corner,Vertex Input Direction,Coordinate System,Daylight Reference Point Coordinate System,Rectangular (Simple) Surface Coordinate System
 Surface Geometry,UpperLeftCorner,Counterclockwise,RelativeCoordinateSystem,RelativeCoordinateSystem,RelativeToZoneOrigin
! <Surface Heat Transfer Algorithm>, Value {CTF - ConductionTransferFunction | EMPD - MoisturePenetrationDepthConductionTransferFunction | CondFD - ConductionFiniteDifference | HAMT - CombinedHeatAndMoistureFiniteElement} - Description,Inside Surface Max Temperature Limit{C}, Surface Convection Coefficient Lower Limit {W/m2-K}, Surface Convection Coefficient Upper Limit {W/m2-K}
Surface Heat Transfer Algorithm, CTF - ConductionTransferFunction,200,0.10,1000.0
! <Shading Summary>, Number of Fixed Detached Shades, Number of Building Detached Shades, Number of Attached Shades
 Shading Summary,0,0,0
! <Zone Summary>, Number of Zones, Number of Zone Surfaces, Number of SubSurfaces
 Zone Summary,5,39,4
! <Zone Information>,Zone Name,North Axis {deg},Origin X-Coordinate {m},Origin Y-Coordinate {m},Origin Z-Coordinate {m},Centroid X-Coordinate {m},Centroid Y-Coordinate {m},Centroid Z-Coordinate {m},Type,Zone Multiplier,Zone List Multiplier,Minimum X {m},Maximum X {m},Minimum Y {m},Maximum Y {m},Minimum Z {m},Maximum Z {m},Ceiling Height {m},Volume {m3},Zone Inside Convection Algorithm {Simple-Detailed-CeilingDiffuser-TrombeWall},Zone Outside Convection Algorithm {Simple-Detailed-Tarp-MoWitt-DOE-2-BLAST}, Floor Area {m2},Exterior Gross Wall Area {m2},Exterior Net Wall Area {m2},Exterior Window Area {m2}, Number of Surfaces, Number of SubSurfaces, Number of Shading SubSurfaces,  Part of Total Building Area
 Zone Information, ZN_1_FLR_1_SEC_1,0.0,0.00,0.00,0.00,-4.41,-3.20,2.11,1,1,1,-9.82,0.00,-5.94,0.00,0.00,4.22,4.22,106.50,TARP,DOE-2,25.24,44.55,30.59,13.96,6,1,0,Yes
 Zone Information, ZN_1_FLR_1_SEC_2,0.0,10.56,0.00,0.00,-6.83,-7.90,2.11,1,1,1,-9.82,-4.21,-12.88,-3.88,0.00,4.22,4.22,92.88,TARP,DOE-2,22.01,40.83,32.30,8.53,6,1,0,Yes
 Zone Information, ZN_1_FLR_1_SEC_3,0.0,3.66,6.02,0.00,-1.85,-9.68,2.11,1,1,1,-6.26,3.56,-12.88,-6.94,0.00,4.22,4.22,106.50,TARP,DOE-2,25.24,44.55,35.25,9.31,6,1,0,Yes
 Zone Information, ZN_1_FLR_1_SEC_4,0.0,0.00,0.00,0.00,0.57,-4.98,2.11,1,1,1,-2.06,3.56,-9.00,0.00,0.00,4.22,4.22,92.88,TARP,DOE-2,22.01,40.83,32.30,8.53,6,1,0,Yes
 Zone Information, ZN_1_FLR_1_SEC_5,0.0,3.66,3.66,0.00,-3.13,-6.44,2.11,1,1,1,-5.08,-1.19,-8.14,-4.74,0.00,4.22,4.22,32.41,TARP,DOE-2,7.68,0.00,0.00,0.00,6,0,0,Yes
! <Zone Internal Gains Nominal>,Zone Name, Floor Area {m2},# Occupants,Area per Occupant {m2/person},Occupant per Area {person/m2},Interior Lighting {W/m2},Electric Load {W/m2},Gas Load {W/m2},Other Load {W/m2},Hot Water Eq {W/m2},Steam Equipment {W/m2},Sum Loads per Area {W/m2},Outdoor Controlled Baseboard Heat
 Zone Internal Gains Nominal, ZN_1_FLR_1_SEC_1,25.24,10.4,2.433,0.411,17.462,10.206,58.961,0.000,0.000,0.000,86.629,No
 Zone Internal Gains Nominal, ZN_1_FLR_1_SEC_2,22.01,9.0,2.433,0.411,17.462,10.206,58.961,0.000,0.000,0.000,86.628,No
 Zone Internal Gains Nominal, ZN_1_FLR_1_SEC_3,25.24,10.4,2.433,0.411,17.462,10.206,58.961,0.000,0.000,0.000,86.629,No
 Zone Internal Gains Nominal, ZN_1_FLR_1_SEC_4,22.01,9.0,2.433,0.411,17.462,10.206,58.961,0.000,0.000,0.000,86.628,No
 Zone Internal Gains Nominal, ZN_1_FLR_1_SEC_5,7.68,3.2,2.433,0.411,17.462,10.206,58.960,0.000,0.000,0.000,86.628,No
! <People Internal Gains Nominal>,Name,Schedule Name,Zone Name,Zone Floor Area {m2},# Zone Occupants,Number of People {},People/Floor Area {person/m2},Floor Area per person {m2/person},Fraction Radiant,Fraction Convected,Sensible Fraction Calculation,Activity level,ASHRAE 55 Warnings,Carbon Dioxide Generation Rate,Nominal Minimum Number of People,Nominal Maximum Number of People,MRT Calculation Type,Work Efficiency, Clothing Insulation Calculation Method,Clothing Insulation Calculation Method Schedule,Clothing,Air Velocity,Fanger Calculation,Pierce Calculation,KSU Calculation
 People Internal Gains Nominal, ZN_1_FLR_1_SEC_1,BLDG_OCC_SCH,ZN_1_FLR_1_SEC_1,25.24,10.4,10.4,0.411,2.433,0.300,0.700,AutoCalculate,ACTIVITY_SCH,No,3.8200E-008,5,10,Zone Averaged,WORK_EFF_SCH,Clothing Insulation Schedule,N/A,CLOTHING_SCH,AIR_VELO_SCH,Yes,No,No
 People Internal Gains Nominal, ZN_1_FLR_1_SEC_2,BLDG_OCC_SCH,ZN_1_FLR_1_SEC_2,22.01,9.0,9.0,0.411,2.433,0.300,0.700,AutoCalculate,ACTIVITY_SCH,No,3.8200E-008,5,9,Zone Averaged,WORK_EFF_SCH,Clothing Insulation Schedule,N/A,CLOTHING_SCH,AIR_VELO_SCH,Yes,No,No
 People Internal Gains Nominal, ZN_1_FLR_1_SEC_3,BLDG_OCC_SCH,ZN_1_FLR_1_SEC_3,25.24,10.4,10.4,0.411,2.433,0.300,0.700,AutoCalculate,ACTIVITY_SCH,No,3.8200E-008,5,10,Zone Averaged,WORK_EFF_SCH,Clothing Insulation Schedule,N/A,CLOTHING_SCH,AIR_VELO_SCH,Yes,No,No
 People Internal Gains Nominal, ZN_1_FLR_1_SEC_4,BLDG_OCC_SCH,ZN_1_FLR_1_SEC_4,22.01,9.0,9.0,0.411,2.433,0.300,0.700,AutoCalculate,ACTIVITY_SCH,No,3.8200E-008,5,9,Zone Averaged,WORK_EFF_SCH,Clothing Insulation Schedule,N/A,CLOTHING_SCH,AIR_VELO_SCH,Yes,No,No
 People Internal Gains Nominal, ZN_1_FLR_1_SEC_5,BLDG_OCC_SCH,ZN_1_FLR_1_SEC_5,7.68,3.2,3.2,0.411,2.433,0.300,0.700,AutoCalculate,ACTIVITY_SCH,No,3.8200E-008,2,3,Zone Averaged,WORK_EFF_SCH,Clothing Insulation Schedule,N/A,CLOTHING_SCH,AIR_VELO_SCH,Yes,No,No
! <Lights Internal Gains Nominal>,Name,Schedule Name,Zone Name,Zone Floor Area {m2},# Zone Occupants,Lighting Level {W},Lights/Floor Area {W/m2},Lights per person {W/person},Fraction Return Air,Fraction Radiant,Fraction Short Wave,Fraction Convected,Fraction Replaceable,End-Use Category,Nominal Minimum Lighting Level {W},Nominal Maximum Lighting Level {W}
 Lights Internal Gains Nominal, ZN_1_FLR_1_SEC_1_LIGHTS,BLDG_LIGHT_SCH,ZN_1_FLR_1_SEC_1,25.24,10.4,440.759,17.462,42.487,0.000,0.200,0.200,0.600,1.000,General Lights,440.759,440.759
 Lights Internal Gains Nominal, ZN_1_FLR_1_SEC_2_LIGHTS,BLDG_LIGHT_SCH,ZN_1_FLR_1_SEC_2,22.01,9.0,384.392,17.462,42.487,0.000,0.200,0.200,0.600,1.000,General Lights,384.392,384.392
 Lights Internal Gains Nominal, ZN_1_FLR_1_SEC_3_LIGHTS,BLDG_LIGHT_SCH,ZN_1_FLR_1_SEC_3,25.24,10.4,440.759,17.462,42.487,0.000,0.200,0.200,0.600,1.000,General Lights,440.759,440.759
 Lights Internal Gains Nominal, ZN_1_FLR_1_SEC_4_LIGHTS,BLDG_LIGHT_SCH,ZN_1_FLR_1_SEC_4,22.01,9.0,384.392,17.462,42.487,0.000,0.200,0.200,0.600,1.000,General Lights,384.392,384.392
 Lights Internal Gains Nominal, ZN_1_FLR_1_SEC_5_LIGHTS,BLDG_LIGHT_SCH,ZN_1_FLR_1_SEC_5,7.68,3.2,134.139,17.462,42.487,0.000,0.200,0.200,0.600,1.000,General Lights,134.139,134.139
! <ElectricEquipment Internal Gains Nominal>,Name,Schedule Name,Zone Name,Zone Floor Area {m2},# Zone Occupants,Equipment Level {W},Equipment/Floor Area {W/m2},Equipment per person {W/person},Fraction Latent,Fraction Radiant,Fraction Lost,Fraction Convected,End-Use SubCategory,Nominal Minimum Equipment Level {W},Nominal Maximum Equipment Level {W}
 ElectricEquipment Internal Gains Nominal, ZN_1_FLR_1_SEC_1_MISCPLUG_EQUIP,BLDG_EQUIP_SCH,ZN_1_FLR_1_SEC_1,25.24,10.4,257.608,10.206,24.832,0.000,0.500,0.000,0.500,MiscPlug,244.727,244.727
 ElectricEquipment Internal Gains Nominal, ZN_1_FLR_1_SEC_2_MISCPLUG_EQUIP,BLDG_EQUIP_SCH,ZN_1_FLR_1_SEC_2,22.01,9.0,224.663,10.206,24.832,0.000,0.500,0.000,0.500,MiscPlug,213.430,213.430
 ElectricEquipment Internal Gains Nominal, ZN_1_FLR_1_SEC_3_MISCPLUG_EQUIP,BLDG_EQUIP_SCH,ZN_1_FLR_1_SEC_3,25.24,10.4,257.608,10.206,24.832,0.000,0.500,0.000,0.500,MiscPlug,244.727,244.727
 ElectricEquipment Internal Gains Nominal, ZN_1_FLR_1_SEC_4_MISCPLUG_EQUIP,BLDG_EQUIP_SCH,ZN_1_FLR_1_SEC_4,22.01,9.0,224.663,10.206,24.832,0.000,0.500,0.000,0.500,MiscPlug,213.430,213.430
 ElectricEquipment Internal Gains Nominal, ZN_1_FLR_1_SEC_5_MISCPLUG_EQUIP,BLDG_EQUIP_SCH,ZN_1_FLR_1_SEC_5,7.68,3.2,78.400,10.206,24.832,0.000,0.500,0.000,0.500,MiscPlug,74.480,74.480
! <GasEquipment Internal Gains Nominal>,Name,Schedule Name,Zone Name,Zone Floor Area {m2},# Zone Occupants,Equipment Level {W},Equipment/Floor Area {W/m2},Equipment per person {W/person},Fraction Latent,Fraction Radiant,Fraction Lost,Fraction Convected,End-Use SubCategory,Nominal Minimum Equipment Level {W},Nominal Maximum Equipment Level {W}
 GasEquipment Internal Gains Nominal, ZN_1_FLR_1_SEC_1_MISCGAS_EQUIP,BLDG_EQUIP_SCH,ZN_1_FLR_1_SEC_1,25.24,10.4,1488.233,58.961,143.457,0.000,0.200,0.000,0.800,MiscGas,1413.822,1413.822
 GasEquipment Internal Gains Nominal, ZN_1_FLR_1_SEC_2_MISCGAS_EQUIP,BLDG_EQUIP_SCH,ZN_1_FLR_1_SEC_2,22.01,9.0,1297.907,58.961,143.458,0.000,0.200,0.000,0.800,MiscGas,1233.011,1233.011
 GasEquipment Internal Gains Nominal, ZN_1_FLR_1_SEC_3_MISCGAS_EQUIP,BLDG_EQUIP_SCH,ZN_1_FLR_1_SEC_3,25.24,10.4,1488.233,58.961,143.457,0.000,0.200,0.000,0.800,MiscGas,1413.822,1413.822
 GasEquipment Internal Gains Nominal, ZN_1_FLR_1_SEC_4_MISCGAS_EQUIP,BLDG_EQUIP_SCH,ZN_1_FLR_1_SEC_4,22.01,9.0,1297.907,58.961,143.458,0.000,0.200,0.000,0.800,MiscGas,1233.011,1233.011
 GasEquipment Internal Gains Nominal, ZN_1_FLR_1_SEC_5_MISCGAS_EQUIP,BLDG_EQUIP_SCH,ZN_1_FLR_1_SEC_5,7.68,3.2,452.924,58.960,143.458,0.000,0.200,0.000,0.800,MiscGas,430.278,430.278
! <Shadowing/Sun Position Calculations Annual Simulations>, Calculation Method, Value {days}, Allowable Number Figures in Shadow Overlap {}, Polygon Clipping Algorithm, Sky Diffuse Modeling Algorithm, External Shading Calculation Method, Output External Shading Calculation Results, Disable Self-Shading Within Shading Zone Groups, Disable Self-Shading From Shading Zone Groups to Other Zones
Shadowing/Sun Position Calculations Annual Simulations,AverageOverDaysInFrequency,30,15000,SutherlandHodgman,SimpleSkyDiffuseModeling,InternalCalculation,No,No,No
! <Water Heater Information>,Type,Name,Volume {m3},Maximum Capacity {W},Standard Rated Recovery Efficiency, Standard Rated Energy Factor
! <Water Heater Stratified Node Information>,Node Number,Height {m},Volume {m3},Maximum Capacity {W},Off-Cycle UA {W/K},On-Cycle UA {W/K},Number Of Inlets,Number Of Outlets
Water Heater Stratified Node Information,1,9.6969E-002,0.1500,4500.000,7.1846,1.1846,1,1
Water Heater Stratified Node Information,2,9.6969E-002,0.1500,0.000,6.2565,0.2565,0,0
Water Heater Stratified Node Information,3,9.6969E-002,0.1500,0.000,6.2565,0.2565,0,0
Water Heater Stratified Node Information,4,9.6969E-002,0.1500,0.000,6.2565,0.2565,0,0
Water Heater Stratified Node Information,5,9.6969E-002,0.1500,0.000,6.2565,0.2565,0,0
Water Heater Stratified Node Information,6,9.6969E-002,0.1500,0.000,6.2565,0.2565,0,0
Water Heater Stratified Node Information,7,9.6969E-002,0.1500,0.000,6.2565,0.2565,0,0
Water Heater Stratified Node Information,8,9.6969E-002,0.1500,0.000,6.2565,0.2565,0,0
Water Heater Stratified Node Information,9,9.6969E-002,0.1500,0.000,6.2565,0.2565,0,0
Water Heater Stratified Node Information,10,9.6969E-002,0.1500,0.000,7.1846,1.1846,1,1
! <ZoneInfiltration Airflow Stats Nominal>,Name,Schedule Name,Zone Name, Zone Floor Area {m2}, # Zone Occupants,Design Volume Flow Rate {m3/s},Volume Flow Rate/Floor Area {m3/s/m2},Volume Flow Rate/Exterior Surface Area {m3/s/m2},ACH - Air Changes per Hour,Equation A - Constant Term Coefficient {},Equation B - Temperature Term Coefficient {1/C},Equation C - Velocity Term Coefficient {s/m}, Equation D - Velocity Squared Term Coefficient {s2/m2}
 ZoneInfiltration Airflow Stats Nominal, ZN_1_FLR_1_SEC_1_INFILTRATION,INFIL_SCH,ZN_1_FLR_1_SEC_1,25.24,10.4,1.930E-002,7.646E-004,2.765E-004,0.652,1.000,0.000,0.000,0.000
 ZoneInfiltration Airflow Stats Nominal, ZN_1_FLR_1_SEC_2_INFILTRATION,INFIL_SCH,ZN_1_FLR_1_SEC_2,22.01,9.0,1.740E-002,7.904E-004,2.769E-004,0.674,1.000,0.000,0.000,0.000
 ZoneInfiltration Airflow Stats Nominal, ZN_1_FLR_1_SEC_3_INFILTRATION,INFIL_SCH,ZN_1_FLR_1_SEC_3,25.24,10.4,1.930E-002,7.646E-004,2.765E-004,0.652,1.000,0.000,0.000,0.000
 ZoneInfiltration Airflow Stats Nominal, ZN_1_FLR_1_SEC_4_INFILTRATION,INFIL_SCH,ZN_1_FLR_1_SEC_4,22.01,9.0,1.740E-002,7.904E-004,2.769E-004,0.674,1.000,0.000,0.000,0.000
 ZoneInfiltration Airflow Stats Nominal, ZN_1_FLR_1_SEC_5_INFILTRATION,INFIL_SCH,ZN_1_FLR_1_SEC_5,7.68,3.2,2.200E-003,2.864E-004,2.864E-004,0.244,1.000,0.000,0.000,0.000
! <AirFlow Model>, Simple
 AirFlow Model, Simple
! <RoomAir Model>, Zone Name, Mixing/Mundt/UCSDDV/UCSDCV/UCSDUFI/UCSDUFE/User Defined
RoomAir Model,ZN_1_FLR_1_SEC_1,Mixing/Well-Stirred
RoomAir Model,ZN_1_FLR_1_SEC_2,Mixing/Well-Stirred
RoomAir Model,ZN_1_FLR_1_SEC_3,Mixing/Well-Stirred
RoomAir Model,ZN_1_FLR_1_SEC_4,Mixing/Well-Stirred
RoomAir Model,ZN_1_FLR_1_SEC_5,Mixing/Well-Stirred
! <AirflowNetwork Model:Control>, No Multizone or Distribution/Multizone with Distribution/Multizone without Distribution/Multizone with Distribution only during Fan Operation
AirflowNetwork Model:Control,NoMultizoneOrDistribution
! <Zone Volume Capacitance Multiplier>, Sensible Heat Capacity Multiplier, Moisture Capacity Multiplier, Carbon Dioxide Capacity Multiplier, Generic Contaminant Capacity Multiplier
Zone Volume Capacitance Multiplier,   1.000 ,   1.000,   1.000,   1.000
! <Load Timesteps in Zone Design Calculation Averaging Window>, Value
 Load Timesteps in Zone Design Calculation Averaging Window,   60
! <Heating Sizing Factor Information>, Sizing Factor ID, Value
 Heating Sizing Factor Information, Global,   1.2000    
 Heating Sizing Factor Information, Zone ZN_1_FLR_1_SEC_1,   1.2000    
 Heating Sizing Factor Information, Zone ZN_1_FLR_1_SEC_2,   1.2000    
 Heating Sizing Factor Information, Zone ZN_1_FLR_1_SEC_3,   1.2000    
 Heating Sizing Factor Information, Zone ZN_1_FLR_1_SEC_4,   1.2000    
 Heating Sizing Factor Information, Zone ZN_1_FLR_1_SEC_5,   1.2000    
! <Cooling Sizing Factor Information>, Sizing Factor ID, Value
 Cooling Sizing Factor Information, Global,   1.2000    
 Cooling Sizing Factor Information, Zone ZN_1_FLR_1_SEC_1,   1.2000    
 Cooling Sizing Factor Information, Zone ZN_1_FLR_1_SEC_2,   1.2000    
 Cooling Sizing Factor Information, Zone ZN_1_FLR_1_SEC_3,   1.2000    
 Cooling Sizing Factor Information, Zone ZN_1_FLR_1_SEC_4,   1.2000    
 Cooling Sizing Factor Information, Zone ZN_1_FLR_1_SEC_5,   1.2000    
! <Fuel Supply>, Fuel Supply Name, Lower Heating Value [J/kmol], Lower Heating Value [kJ/kg], Higher Heating Value [KJ/kg],  Molecular Weight [g/mol] 
 Fuel Supply, NATURALGAS, 0.803434E+09,  47614.2    ,  52791.2    ,  16.8738    
! <Fuel Supply>, Fuel Supply Name, Lower Heating Value [J/kmol], Lower Heating Value [kJ/kg], Higher Heating Value [KJ/kg],  Molecular Weight [g/mol] 
 Fuel Supply, FCT SOFC FUEL SUPPLY, 0.803434E+09,  47614.2    ,  52791.2    ,  16.8738    
! <Fuel Supply>, Fuel Supply Name, Lower Heating Value [J/kmol], Lower Heating Value [kJ/kg], Higher Heating Value [KJ/kg],  Molecular Weight [g/mol] 
 Fuel Supply, NATURALGAS, 0.803434E+09,  47614.2    ,  52791.2    ,  16.8738    
! <Fuel Supply>, Fuel Supply Name, Lower Heating Value [J/kmol], Lower Heating Value [kJ/kg], Higher Heating Value [KJ/kg],  Molecular Weight [g/mol] 
 Fuel Supply, FCT SOFC FUEL SUPPLY, 0.803434E+09,  47614.2    ,  52791.2    ,  16.8738    
! <Zone Sizing Information>, Zone Name, Load Type, Calc Des Load {W}, User Des Load {W}, Calc Des Air Flow Rate {m3/s}, User Des Air Flow Rate {m3/s}, Design Day Name, Date/Time of Peak, Temperature at Peak {C}, Humidity Ratio at Peak {kgWater/kgDryAir}, Floor Area {m2}, # Occupants, Calc Outdoor Air Flow Rate {m3/s}, Calc DOAS Heat Addition Rate {W}
 Zone Sizing Information, ZN_1_FLR_1_SEC_1, Cooling, 5616.82919, 6740.19503, 0.46807, 0.56168, NEWARK ANN CLG .4% CONDNS DB=>MWB, 7/21 17:58:00, 31.99367, 1.43455E-002, 25.24102, 10.37410, 0.20205, 0.00000
 Zone Sizing Information, ZN_1_FLR_1_SEC_1, Heating, 1098.47490, 1318.16988, 3.15895E-002, 0.20205, NEWARK ANN HTG 99.6% CONDNS DB, 1/21 13:00:00, -12.10000, 1.32628E-003, 25.24102, 10.37410, 0.20205, 0.00000
 Zone Sizing Information, ZN_1_FLR_1_SEC_2, Cooling, 5878.83689, 7054.60427, 0.48990, 0.58788, NEWARK ANN CLG .4% CONDNS DB=>MWB, 7/21 16:48:00, 32.99640, 1.43455E-002, 22.01314, 9.04730, 0.17621, 0.00000
 Zone Sizing Information, ZN_1_FLR_1_SEC_2, Heating, 832.64476, 999.17371, 2.39449E-002, 0.17621, NEWARK ANN HTG 99.6% CONDNS DB, 1/21 13:00:00, -12.10000, 1.32628E-003, 22.01314, 9.04730, 0.17621, 0.00000
 Zone Sizing Information, ZN_1_FLR_1_SEC_3, Cooling, 5107.67487, 6129.20984, 0.42564, 0.51077, NEWARK ANN CLG .4% CONDNS DB=>MWB, 7/21 11:47:00, 32.75017, 1.43455E-002, 25.24102, 10.37410, 0.20205, 0.00000
 Zone Sizing Information, ZN_1_FLR_1_SEC_3, Heating, 769.68448, 923.62138, 2.21343E-002, 0.20205, NEWARK ANN HTG 99.6% CONDNS DB, 1/21 13:00:00, -12.10000, 1.32628E-003, 25.24102, 10.37410, 0.20205, 0.00000
 Zone Sizing Information, ZN_1_FLR_1_SEC_4, Cooling, 4928.45959, 5914.15151, 0.41071, 0.49285, NEWARK ANN CLG .4% CONDNS DB=>MWB, 7/21 08:39:00, 28.61315, 1.43455E-002, 22.01314, 9.04730, 0.17621, 0.00000
 Zone Sizing Information, ZN_1_FLR_1_SEC_4, Heating, 829.36448, 995.23738, 2.38505E-002, 0.17621, NEWARK ANN HTG 99.6% CONDNS DB, 1/21 13:00:00, -12.10000, 1.32628E-003, 22.01314, 9.04730, 0.17621, 0.00000
 Zone Sizing Information, ZN_1_FLR_1_SEC_5, Cooling, 1851.53567, 2221.84280, 0.15429, 0.18515, NEWARK ANN CLG .4% CONDNS DB=>MWB, 7/21 18:40:00, 31.07400, 1.43455E-002, 7.68184, 3.15720, 6.14926E-002, 0.00000
 Zone Sizing Information, ZN_1_FLR_1_SEC_5, Heating, 0.00000, 0.00000, 0.00000, 6.14926E-002, NEWARK ANN HTG 99.6% CONDNS DB, , -12.10000, 1.32628E-003, 7.68184, 3.15720, 6.14926E-002, 0.00000
! <Component Sizing Information>, Component Type, Component Name, Input Field Description, Value
 Component Sizing Information, ZoneHVAC:PackagedTerminalAirConditioner, ZN_1_FLR_1_SEC_1 PTAC, Design Size Cooling Supply Air Flow Rate [m3/s], 0.56168
 Component Sizing Information, ZoneHVAC:PackagedTerminalAirConditioner, ZN_1_FLR_1_SEC_1 PTAC, Design Size Heating Supply Air Flow Rate [m3/s], 0.56168
 Component Sizing Information, ZoneHVAC:PackagedTerminalAirConditioner, ZN_1_FLR_1_SEC_1 PTAC, Design Size No Load Supply Air Flow Rate [m3/s], 0.56168
 Component Sizing Information, ZoneHVAC:PackagedTerminalAirConditioner, ZN_1_FLR_1_SEC_1 PTAC, Design Size Outdoor Air Flow Rate During Cooling Operation [m3/s], 0.20205
 Component Sizing Information, ZoneHVAC:PackagedTerminalAirConditioner, ZN_1_FLR_1_SEC_1 PTAC, Design Size Outdoor Air Flow Rate During Heating Operation [m3/s], 0.20205
 Component Sizing Information, ZoneHVAC:PackagedTerminalAirConditioner, ZN_1_FLR_1_SEC_1 PTAC, Design Size Outdoor Air Flow Rate When No Cooling or Heating is Needed [m3/s], 0.20205
 Component Sizing Information, Coil:Heating:Water, ZN_1_FLR_1_SEC_1 PTAC HEAT COIL, Design Size Rated Capacity [W], 27550.94168
 Component Sizing Information, Coil:Heating:Water, ZN_1_FLR_1_SEC_1 PTAC HEAT COIL, Design Size Maximum Water Flow Rate [m3/s], 1.33915E-003
 Component Sizing Information, Coil:Heating:Water, ZN_1_FLR_1_SEC_1 PTAC HEAT COIL, Design Size U-Factor Times Area Value [W/K], 1216.95768
! <Water Heating Coil Capacity Information>,Component Type,Name,Nominal Total Capacity {W}
Water Heating Coil Capacity Information,Coil:Heating:Water,ZN_1_FLR_1_SEC_1 PTAC HEAT COIL,35581.57
 Component Sizing Information, Coil:Cooling:DX:SingleSpeed, ZN_1_FLR_1_SEC_1 PTAC DXCOIL, Design Size Rated Air Flow Rate [m3/s], 0.56168
 Component Sizing Information, Coil:Cooling:DX:SingleSpeed, ZN_1_FLR_1_SEC_1 PTAC DXCOIL, Design Size Gross Rated Total Cooling Capacity [W], 12942.48018
 Component Sizing Information, Coil:Cooling:DX:SingleSpeed, ZN_1_FLR_1_SEC_1 PTAC DXCOIL, Design Size Gross Rated Sensible Heat Ratio, 0.72112
! <DX Cooling Coil Standard Rating Information>, Component Type, Component Name, Standard Rating (Net) Cooling Capacity {W}, Standard Rated Net COP {W/W}, EER {Btu/W-h}, SEER {Btu/W-h}, IEER {Btu/W-h}
 DX Cooling Coil Standard Rating Information, Coil:Cooling:DX:SingleSpeed, ZN_1_FLR_1_SEC_1 PTAC DXCOIL, 12506.1, 2.28, 7.78, 8.27, 8.22
 Component Sizing Information, Fan:OnOff, ZN_1_FLR_1_SEC_1 PTACFAN, Design Size Maximum Flow Rate [m3/s], 0.56168
 Component Sizing Information, ZoneHVAC:PackagedTerminalAirConditioner, ZN_1_FLR_1_SEC_2 PTAC, Design Size Cooling Supply Air Flow Rate [m3/s], 0.58788
 Component Sizing Information, ZoneHVAC:PackagedTerminalAirConditioner, ZN_1_FLR_1_SEC_2 PTAC, Design Size Heating Supply Air Flow Rate [m3/s], 0.58788
 Component Sizing Information, ZoneHVAC:PackagedTerminalAirConditioner, ZN_1_FLR_1_SEC_2 PTAC, Design Size No Load Supply Air Flow Rate [m3/s], 0.58788
 Component Sizing Information, ZoneHVAC:PackagedTerminalAirConditioner, ZN_1_FLR_1_SEC_2 PTAC, Design Size Outdoor Air Flow Rate During Cooling Operation [m3/s], 0.17621
 Component Sizing Information, ZoneHVAC:PackagedTerminalAirConditioner, ZN_1_FLR_1_SEC_2 PTAC, Design Size Outdoor Air Flow Rate During Heating Operation [m3/s], 0.17621
 Component Sizing Information, ZoneHVAC:PackagedTerminalAirConditioner, ZN_1_FLR_1_SEC_2 PTAC, Design Size Outdoor Air Flow Rate When No Cooling or Heating is Needed [m3/s], 0.17621
 Component Sizing Information, Coil:Heating:Water, ZN_1_FLR_1_SEC_2 PTAC HEAT COIL, Design Size Rated Capacity [W], 27436.49524
 Component Sizing Information, Coil:Heating:Water, ZN_1_FLR_1_SEC_2 PTAC HEAT COIL, Design Size Maximum Water Flow Rate [m3/s], 1.33359E-003
 Component Sizing Information, Coil:Heating:Water, ZN_1_FLR_1_SEC_2 PTAC HEAT COIL, Design Size U-Factor Times Area Value [W/K], 1245.24281
Water Heating Coil Capacity Information,Coil:Heating:Water,ZN_1_FLR_1_SEC_2 PTAC HEAT COIL,36864.63
 Component Sizing Information, Coil:Cooling:DX:SingleSpeed, ZN_1_FLR_1_SEC_2 PTAC DXCOIL, Design Size Rated Air Flow Rate [m3/s], 0.58788
 Component Sizing Information, Coil:Cooling:DX:SingleSpeed, ZN_1_FLR_1_SEC_2 PTAC DXCOIL, Design Size Gross Rated Total Cooling Capacity [W], 13109.97169
 Component Sizing Information, Coil:Cooling:DX:SingleSpeed, ZN_1_FLR_1_SEC_2 PTAC DXCOIL, Design Size Gross Rated Sensible Heat Ratio, 0.73291
 DX Cooling Coil Standard Rating Information, Coil:Cooling:DX:SingleSpeed, ZN_1_FLR_1_SEC_2 PTAC DXCOIL, 12653.3, 2.27, 7.75, 8.24, 8.17
 Component Sizing Information, Fan:OnOff, ZN_1_FLR_1_SEC_2 PTACFAN, Design Size Maximum Flow Rate [m3/s], 0.58788
 Component Sizing Information, ZoneHVAC:PackagedTerminalAirConditioner, ZN_1_FLR_1_SEC_3 PTAC, Design Size Cooling Supply Air Flow Rate [m3/s], 0.51077
 Component Sizing Information, ZoneHVAC:PackagedTerminalAirConditioner, ZN_1_FLR_1_SEC_3 PTAC, Design Size Heating Supply Air Flow Rate [m3/s], 0.51077
 Component Sizing Information, ZoneHVAC:PackagedTerminalAirConditioner, ZN_1_FLR_1_SEC_3 PTAC, Design Size No Load Supply Air Flow Rate [m3/s], 0.51077
 Component Sizing Information, ZoneHVAC:PackagedTerminalAirConditioner, ZN_1_FLR_1_SEC_3 PTAC, Design Size Outdoor Air Flow Rate During Cooling Operation [m3/s], 0.20205
 Component Sizing Information, ZoneHVAC:PackagedTerminalAirConditioner, ZN_1_FLR_1_SEC_3 PTAC, Design Size Outdoor Air Flow Rate During Heating Operation [m3/s], 0.20205
 Component Sizing Information, ZoneHVAC:PackagedTerminalAirConditioner, ZN_1_FLR_1_SEC_3 PTAC, Design Size Outdoor Air Flow Rate When No Cooling or Heating is Needed [m3/s], 0.20205
 Component Sizing Information, Coil:Heating:Water, ZN_1_FLR_1_SEC_3 PTAC HEAT COIL, Design Size Rated Capacity [W], 25780.38422
 Component Sizing Information, Coil:Heating:Water, ZN_1_FLR_1_SEC_3 PTAC HEAT COIL, Design Size Maximum Water Flow Rate [m3/s], 1.25309E-003
 Component Sizing Information, Coil:Heating:Water, ZN_1_FLR_1_SEC_3 PTAC HEAT COIL, Design Size U-Factor Times Area Value [W/K], 1121.71816
Water Heating Coil Capacity Information,Coil:Heating:Water,ZN_1_FLR_1_SEC_3 PTAC HEAT COIL,32547.56
 Component Sizing Information, Coil:Cooling:DX:SingleSpeed, ZN_1_FLR_1_SEC_3 PTAC DXCOIL, Design Size Rated Air Flow Rate [m3/s], 0.51077
 Component Sizing Information, Coil:Cooling:DX:SingleSpeed, ZN_1_FLR_1_SEC_3 PTAC DXCOIL, Design Size Gross Rated Total Cooling Capacity [W], 12348.84012
 Component Sizing Information, Coil:Cooling:DX:SingleSpeed, ZN_1_FLR_1_SEC_3 PTAC DXCOIL, Design Size Gross Rated Sensible Heat Ratio, 0.70673
 DX Cooling Coil Standard Rating Information, Coil:Cooling:DX:SingleSpeed, ZN_1_FLR_1_SEC_3 PTAC DXCOIL, 11951.9, 2.29, 7.82, 8.32, 8.29
 Component Sizing Information, Fan:OnOff, ZN_1_FLR_1_SEC_3 PTACFAN, Design Size Maximum Flow Rate [m3/s], 0.51077
 Component Sizing Information, ZoneHVAC:PackagedTerminalAirConditioner, ZN_1_FLR_1_SEC_4 PTAC, Design Size Cooling Supply Air Flow Rate [m3/s], 0.49285
 Component Sizing Information, ZoneHVAC:PackagedTerminalAirConditioner, ZN_1_FLR_1_SEC_4 PTAC, Design Size Heating Supply Air Flow Rate [m3/s], 0.49285
 Component Sizing Information, ZoneHVAC:PackagedTerminalAirConditioner, ZN_1_FLR_1_SEC_4 PTAC, Design Size No Load Supply Air Flow Rate [m3/s], 0.49285
 Component Sizing Information, ZoneHVAC:PackagedTerminalAirConditioner, ZN_1_FLR_1_SEC_4 PTAC, Design Size Outdoor Air Flow Rate During Cooling Operation [m3/s], 0.17621
 Component Sizing Information, ZoneHVAC:PackagedTerminalAirConditioner, ZN_1_FLR_1_SEC_4 PTAC, Design Size Outdoor Air Flow Rate During Heating Operation [m3/s], 0.17621
 Component Sizing Information, ZoneHVAC:PackagedTerminalAirConditioner, ZN_1_FLR_1_SEC_4 PTAC, Design Size Outdoor Air Flow Rate When No Cooling or Heating is Needed [m3/s], 0.17621
 Component Sizing Information, Coil:Heating:Water, ZN_1_FLR_1_SEC_4 PTAC HEAT COIL, Design Size Rated Capacity [W], 24131.70252
 Component Sizing Information, Coil:Heating:Water, ZN_1_FLR_1_SEC_4 PTAC HEAT COIL, Design Size Maximum Water Flow Rate [m3/s], 1.17295E-003
 Component Sizing Information, Coil:Heating:Water, ZN_1_FLR_1_SEC_4 PTAC HEAT COIL, Design Size U-Factor Times Area Value [W/K], 1067.31248
Water Heating Coil Capacity Information,Coil:Heating:Water,ZN_1_FLR_1_SEC_4 PTAC HEAT COIL,31213.59
 Component Sizing Information, Coil:Cooling:DX:SingleSpeed, ZN_1_FLR_1_SEC_4 PTAC DXCOIL, Design Size Rated Air Flow Rate [m3/s], 0.49285
 Component Sizing Information, Coil:Cooling:DX:SingleSpeed, ZN_1_FLR_1_SEC_4 PTAC DXCOIL, Design Size Gross Rated Total Cooling Capacity [W], 10462.80586
 Component Sizing Information, Coil:Cooling:DX:SingleSpeed, ZN_1_FLR_1_SEC_4 PTAC DXCOIL, Design Size Gross Rated Sensible Heat Ratio, 0.74968
 DX Cooling Coil Standard Rating Information, Coil:Cooling:DX:SingleSpeed, ZN_1_FLR_1_SEC_4 PTAC DXCOIL, 10080.0, 2.26, 7.71, 8.19, 8.09
 Component Sizing Information, Fan:OnOff, ZN_1_FLR_1_SEC_4 PTACFAN, Design Size Maximum Flow Rate [m3/s], 0.49285
 Component Sizing Information, ZoneHVAC:PackagedTerminalAirConditioner, ZN_1_FLR_1_SEC_5 PTAC, Design Size Cooling Supply Air Flow Rate [m3/s], 0.18515
 Component Sizing Information, ZoneHVAC:PackagedTerminalAirConditioner, ZN_1_FLR_1_SEC_5 PTAC, Design Size Heating Supply Air Flow Rate [m3/s], 0.18515
 Component Sizing Information, ZoneHVAC:PackagedTerminalAirConditioner, ZN_1_FLR_1_SEC_5 PTAC, Design Size No Load Supply Air Flow Rate [m3/s], 0.18515
 Component Sizing Information, ZoneHVAC:PackagedTerminalAirConditioner, ZN_1_FLR_1_SEC_5 PTAC, Design Size Outdoor Air Flow Rate During Cooling Operation [m3/s], 6.14926E-002
 Component Sizing Information, ZoneHVAC:PackagedTerminalAirConditioner, ZN_1_FLR_1_SEC_5 PTAC, Design Size Outdoor Air Flow Rate During Heating Operation [m3/s], 6.14926E-002
 Component Sizing Information, ZoneHVAC:PackagedTerminalAirConditioner, ZN_1_FLR_1_SEC_5 PTAC, Design Size Outdoor Air Flow Rate When No Cooling or Heating is Needed [m3/s], 6.14926E-002
 Component Sizing Information, Coil:Heating:Water, ZN_1_FLR_1_SEC_5 PTAC HEAT COIL, Design Size Rated Capacity [W], 8878.69886
 Component Sizing Information, Coil:Heating:Water, ZN_1_FLR_1_SEC_5 PTAC HEAT COIL, Design Size Maximum Water Flow Rate [m3/s], 4.31561E-004
 Component Sizing Information, Coil:Heating:Water, ZN_1_FLR_1_SEC_5 PTAC HEAT COIL, Design Size U-Factor Times Area Value [W/K], 395.93343
Water Heating Coil Capacity Information,Coil:Heating:Water,ZN_1_FLR_1_SEC_5 PTAC HEAT COIL,11663.10
 Component Sizing Information, Coil:Cooling:DX:SingleSpeed, ZN_1_FLR_1_SEC_5 PTAC DXCOIL, Design Size Rated Air Flow Rate [m3/s], 0.18515
 Component Sizing Information, Coil:Cooling:DX:SingleSpeed, ZN_1_FLR_1_SEC_5 PTAC DXCOIL, Design Size Gross Rated Total Cooling Capacity [W], 4040.91076
 Component Sizing Information, Coil:Cooling:DX:SingleSpeed, ZN_1_FLR_1_SEC_5 PTAC DXCOIL, Design Size Gross Rated Sensible Heat Ratio, 0.73985
 DX Cooling Coil Standard Rating Information, Coil:Cooling:DX:SingleSpeed, ZN_1_FLR_1_SEC_5 PTAC DXCOIL, 3897.1, 2.27, 7.73, 8.22, 8.14
 Component Sizing Information, Fan:OnOff, ZN_1_FLR_1_SEC_5 PTACFAN, Design Size Maximum Flow Rate [m3/s], 0.18515
Water Heater Information,WaterHeater:Stratified,SHWSYS1 WATER HEATER,1.5000,4500.0,0.906,1.7981
 Component Sizing Information, PlantLoop, SHWSYS1, Maximum Loop Flow Rate [m3/s], 5.58576E-003
 Component Sizing Information, PlantLoop, SHWSYS1, Plant Loop Volume [m3], 0.67029
 Component Sizing Information, Pump:VariableSpeed, SHWSYS1 PUMP, Design Flow Rate [m3/s], 5.58576E-003
 Component Sizing Information, Pump:VariableSpeed, SHWSYS1 PUMP, Design Power Consumption [W], 7.16123E-003
 Component Sizing Information, WaterHeater:Stratified, SHWSYS1 WATER HEATER, Source Side Design Flow Rate [m3/s], 8.16434E-004
 Component Sizing Information, WaterHeater:Stratified, SHWSYS1 WATER HEATER, Use Side Design Flow Rate [m3/s], 5.58576E-003
 Component Sizing Information, WaterHeater:Stratified, SHWSYS1 WATER HEATER, Source Side Design Flow Rate [m3/s], 8.16434E-004
 Component Sizing Information, PlantLoop, MICROCHP SENERTECH, Plant Loop Volume [m3], 0.12000
! <Environment>,Environment Name,Environment Type, Start Date, End Date, Start DayOfWeek, Duration {#days}, Source:Start DayOfWeek,  Use Daylight Saving, Use Holidays, Apply Weekend Holiday Rule,  Use Rain Values, Use Snow Values
! <Environment:Special Days>, Special Day Name, Special Day Type, Source, Start Date, Duration {#days}
! <Environment:Daylight Saving>, Daylight Saving Indicator, Source, Start Date, End Date
! <Environment:WarmupDays>, NumberofWarmupDays
Environment,NEWARK ANN HTG 99.6% CONDNS DB,SizingPeriod:DesignDay,01/21,01/21,WinterDesignDay,1,N/A,N/A,N/A,N/A,N/A,N/A
Environment:Daylight Saving,No,SizingPeriod:DesignDay
! <Environment:Design Day Data>, Max Dry-Bulb Temp {C}, Temp Range {dC}, Temp Range Ind Type, Hum Ind Value at Max Temp, Hum Ind Type,Pressure {Pa}, Wind Direction {deg CW from N}, Wind Speed {m/s}, Clearness, Rain, Snow
! <Environment:Design Day Misc>,DayOfYear,ASHRAE A Coeff,ASHRAE B Coeff,ASHRAE C Coeff,Solar Constant-Annual Variation,Eq of Time {minutes}, Solar Declination Angle {deg}, Solar Model
Environment:Design Day Data,-12.10,0.00,DefaultMultipliers,101217,280,6.1,0.00,No,No
Environment:Design Day Misc, 21,1229.0,0.1415,5.7310E-002,1.0,-11.15,-20.1,ASHRAEClearSky
Environment:WarmupDays,  6
! <Tabular Report>,Style,Unit Conversion
Tabular Report,HTML,None
! <Warmup Convergence Information>,Zone Name,Environment Type/Name,Average Warmup Temperature Difference {deltaC},Std Dev Warmup Temperature Difference {deltaC},Max Temperature Pass/Fail Convergence,Min Temperature Pass/Fail Convergence,Average Warmup Load Difference {W},Std Dev Warmup Load Difference {W},Heating Load Pass/Fail Convergence,Cooling Load Pass/Fail Convergence
 Warmup Convergence Information,ZN_1_FLR_1_SEC_1,SizingPeriod: NEWARK ANN HTG 99.6% CONDNS DB,9.0536715697E-003,8.3013478595E-003,Pass,Pass,2.3945682411E-002,0.1864206658,Pass,Pass
 Warmup Convergence Information,ZN_1_FLR_1_SEC_2,SizingPeriod: NEWARK ANN HTG 99.6% CONDNS DB,4.3483487203E-006,1.2609461418E-005,Pass,Pass,9.4148148461E-004,2.0254308545E-002,Pass,Pass
 Warmup Convergence Information,ZN_1_FLR_1_SEC_3,SizingPeriod: NEWARK ANN HTG 99.6% CONDNS DB,3.3236814117E-006,1.5573641842E-005,Pass,Pass,1.3516421273E-003,3.0929203730E-002,Pass,Pass
 Warmup Convergence Information,ZN_1_FLR_1_SEC_4,SizingPeriod: NEWARK ANN HTG 99.6% CONDNS DB,4.7380147920E-006,1.5554051903E-005,Pass,Pass,9.6699474930E-004,2.0430563653E-002,Pass,Pass
 Warmup Convergence Information,ZN_1_FLR_1_SEC_5,SizingPeriod: NEWARK ANN HTG 99.6% CONDNS DB,3.5383955109E-004,1.7715677526E-003,Pass,Pass,0.0000000000,0.0000000000,Pass,Pass
Environment,NEWARK ANN CLG .4% CONDNS DB=>MWB,SizingPeriod:DesignDay,07/21,07/21,SummerDesignDay,1,N/A,N/A,N/A,N/A,N/A,N/A
Environment:Daylight Saving,No,SizingPeriod:DesignDay
Environment:Design Day Data,34.10,8.90,DefaultMultipliers,101217,250,5.7,1.00,No,No
Environment:Design Day Misc,202,1084.4,0.2082,0.1365,1.0,-6.23,20.6,ASHRAEClearSky
Environment:WarmupDays,  6
 Warmup Convergence Information,ZN_1_FLR_1_SEC_1,SizingPeriod: NEWARK ANN CLG .4% CONDNS DB=>MWB,2.7032066453E-004,1.5937474682E-003,Pass,Pass,4.6180928077E-003,4.5466042106E-003,Pass,Pass
 Warmup Convergence Information,ZN_1_FLR_1_SEC_2,SizingPeriod: NEWARK ANN CLG .4% CONDNS DB=>MWB,1.2265217165E-006,6.2810543571E-006,Pass,Pass,1.1310903775E-003,2.0805139236E-003,Pass,Pass
 Warmup Convergence Information,ZN_1_FLR_1_SEC_3,SizingPeriod: NEWARK ANN CLG .4% CONDNS DB=>MWB,1.5188887593E-006,5.9919379842E-006,Pass,Pass,8.3171854240E-004,1.8473930963E-003,Pass,Pass
 Warmup Convergence Information,ZN_1_FLR_1_SEC_4,SizingPeriod: NEWARK ANN CLG .4% CONDNS DB=>MWB,1.7217888146E-006,5.8576627449E-006,Pass,Pass,9.9956033941E-004,2.3040736645E-003,Pass,Pass
 Warmup Convergence Information,ZN_1_FLR_1_SEC_5,SizingPeriod: NEWARK ANN CLG .4% CONDNS DB=>MWB,3.6760469666E-006,4.5050711898E-005,Pass,Pass,3.4956857413E-004,1.5082112004E-003,Pass,Pass
! <Program Control Information:Threads/Parallel Sims>, Threading Supported,Maximum Number of Threads, Env Set Threads (OMP_NUM_THREADS), EP Env Set Threads (EP_OMP_NUM_THREADS), IDF Set Threads, Number of Threads Used (Interior Radiant Exchange), Number Nominal Surfaces, Number Parallel Sims
Program Control:Threads/Parallel Sims, No,1, N/A, N/A, N/A, N/A, N/A, N/A
End of Data
