Program Version,EnergyPlus, Version 9.2.0-921312fa1d, YMD=2020.05.06 10:33
! This file shows details about the branches, nodes, and other
! elements of the flow connections.
! This file is intended for use in "debugging" potential problems
! that may also be detected by the program, but may be more easily
! identified by "eye".
! This file is also intended to support software which draws a
! schematic diagram of the HVAC system.
! ===============================================================
! #Nodes,<Number of Unique Nodes>
 #Nodes,102
! <Node>,<NodeNumber>,<Node Name>,<Node Fluid Type>,<# Times Node Referenced After Definition>
 Node,1,ZN_1_FLR_1_SEC_1 INLET NODE,Air,3
 Node,2,ZN_1_FLR_1_SEC_1 EXHAUST NODE,Air,3
 Node,3,MICROCOGEN1 AIR INLET NODE,Air,3
 Node,4,ZN_1_FLR_1_SEC_2 INLET NODE,Air,3
 Node,5,ZN_1_FLR_1_SEC_2 EXHAUST NODE,Air,3
 Node,6,ZN_1_FLR_1_SEC_3 INLET NODE,Air,3
 Node,7,ZN_1_FLR_1_SEC_3 EXHAUST NODE,Air,3
 Node,8,ZN_1_FLR_1_SEC_4 INLET NODE,Air,3
 Node,9,ZN_1_FLR_1_SEC_4 EXHAUST NODE,Air,3
 Node,10,ZN_1_FLR_1_SEC_5 INLET NODE,Air,3
 Node,11,ZN_1_FLR_1_SEC_5 EXHAUST NODE,Air,3
 Node,12,SOFC AIR INLET NODE,Air,4
 Node,13,SOFC AIR HR INLET,Air,2
 Node,14,SHWSYS1 SUPPLY INLET NODE,Water,2
 Node,15,SHWSYS1 WATER INLET NODEVIACONNECTOR,Water,1
 Node,16,SHWSYS1 WATER INLET NODE,Water,1
 Node,17,SHWSYS1 WATER OUTLET NODE,Water,1
 Node,18,SHWSYS1 SUPPLY EQUIP BYPASS INLET NODE,Water,1
 Node,19,SHWSYS1 SUPPLY EQUIP BYPASS OUTLET NODE,Water,1
 Node,20,SHWSYS1 SUPPLY MIXER-SHWSYS1 SUPPLY OUTLET PIPE,Water,1
 Node,21,SHWSYS1 SUPPLY OUTLET NODE,Water,4
 Node,22,SHWSYS1 DEMAND INLET NODE,Water,2
 Node,23,SHWSYS1 DEMAND INLET PIPE-SHWSYS1 DEMAND MIXER,Water,1
 Node,24,ZN_1_FLR_1_SEC_1SHW_DEFAULT WATER INLET NODE,Water,1
 Node,25,ZN_1_FLR_1_SEC_1SHW_DEFAULT WATER OUTLET NODE,Water,1
 Node,26,ZN_1_FLR_1_SEC_2SHW_DEFAULT WATER INLET NODE,Water,1
 Node,27,ZN_1_FLR_1_SEC_2SHW_DEFAULT WATER OUTLET NODE,Water,1
 Node,28,ZN_1_FLR_1_SEC_3SHW_DEFAULT WATER INLET NODE,Water,1
 Node,29,ZN_1_FLR_1_SEC_3SHW_DEFAULT WATER OUTLET NODE,Water,1
 Node,30,ZN_1_FLR_1_SEC_4SHW_DEFAULT WATER INLET NODE,Water,1
 Node,31,ZN_1_FLR_1_SEC_4SHW_DEFAULT WATER OUTLET NODE,Water,1
 Node,32,ZN_1_FLR_1_SEC_5SHW_DEFAULT WATER INLET NODE,Water,1
 Node,33,ZN_1_FLR_1_SEC_5SHW_DEFAULT WATER OUTLET NODE,Water,1
 Node,34,ZN_1_FLR_1_SEC_1 PTAC HEAT COILDEMAND INLET NODE,Water,2
 Node,35,ZN_1_FLR_1_SEC_1 PTAC HEAT COILDEMAND OUTLET NODE,Water,1
 Node,36,ZN_1_FLR_1_SEC_2 PTAC HEAT COILDEMAND INLET NODE,Water,2
 Node,37,ZN_1_FLR_1_SEC_2 PTAC HEAT COILDEMAND OUTLET NODE,Water,1
 Node,38,ZN_1_FLR_1_SEC_3 PTAC HEAT COILDEMAND INLET NODE,Water,2
 Node,39,ZN_1_FLR_1_SEC_3 PTAC HEAT COILDEMAND OUTLET NODE,Water,1
 Node,40,ZN_1_FLR_1_SEC_4 PTAC HEAT COILDEMAND INLET NODE,Water,2
 Node,41,ZN_1_FLR_1_SEC_4 PTAC HEAT COILDEMAND OUTLET NODE,Water,1
 Node,42,ZN_1_FLR_1_SEC_5 PTAC HEAT COILDEMAND INLET NODE,Water,2
 Node,43,ZN_1_FLR_1_SEC_5 PTAC HEAT COILDEMAND OUTLET NODE,Water,1
 Node,44,SHWSYS1 DEMAND BYPASS PIPE INLET NODE,Water,1
 Node,45,SHWSYS1 DEMAND BYPASS PIPE OUTLET NODE,Water,1
 Node,46,SHWSYS1 DEMAND MIXER-SHWSYS1 DEMAND OUTLET PIPE,Water,1
 Node,47,SHWSYS1 DEMAND OUTLET NODE,Water,2
 Node,48,MICROCHP SENERTECH SUPPLY INLET NODE,Water,2
 Node,49,MICROCHP SENERTECH PUMP-MICROCOGEN1NODEVIACONNECTOR,Water,1
 Node,50,MICROCHP SENERTECH PUMP-MICROCOGEN1NODE,Water,1
 Node,51,MICROCHP SENERTECH SUPPLY EQUIPMENT OUTLET NODE,Water,1
 Node,52,SMALL SOFC HEAT REC INLET NODE,Water,1
 Node,53,SMALL SOFC HEAT REC OUTLET NODE,Water,1
 Node,54,MICROCHP SENERTECH SUPPLY EQUIP BYPASS INLET NODE,Water,1
 Node,55,MICROCHP SENERTECH SUPPLY EQUIP BYPASS OUTLET NODE,Water,1
 Node,56,MICROCHP SENERTECH SUPPLY MIXER-MICROCHP SENERTECH SUPPLY OUTLET PIPE,Water,1
 Node,57,MICROCHP SENERTECH SUPPLY OUTLET NODE,Water,4
 Node,58,MICROCHP SENERTECH DEMAND INLET NODE,Water,2
 Node,59,MICROCHP SENERTECH DEMAND INLET PIPE-MICROCHP SENERTECH DEMAND MIXER,Water,1
 Node,60,MICROCHP SENERTECH WATER INLET NODE,Water,1
 Node,61,MICROCHP SENERTECH WATER OUTLET NODE,Water,1
 Node,62,MICROCHP SENERTECH DEMAND BYPASS PIPE INLET NODE,Water,1
 Node,63,MICROCHP SENERTECH DEMAND BYPASS PIPE OUTLET NODE,Water,1
 Node,64,MICROCHP SENERTECH DEMAND MIXER-MICROCHP SENERTECH DEMAND OUTLET PIPE,Water,1
 Node,65,MICROCHP SENERTECH DEMAND OUTLET NODE,Water,2
 Node,66,ZN_1_FLR_1_SEC_1 AIR NODE,Air,0
 Node,67,ZN_1_FLR_1_SEC_1 RETURN AIR NODE,Air,0
 Node,68,ZN_1_FLR_1_SEC_2 AIR NODE,Air,0
 Node,69,ZN_1_FLR_1_SEC_2 RETURN AIR NODE,Air,0
 Node,70,ZN_1_FLR_1_SEC_3 AIR NODE,Air,0
 Node,71,ZN_1_FLR_1_SEC_3 RETURN AIR NODE,Air,0
 Node,72,ZN_1_FLR_1_SEC_4 AIR NODE,Air,0
 Node,73,ZN_1_FLR_1_SEC_4 RETURN AIR NODE,Air,0
 Node,74,ZN_1_FLR_1_SEC_5 AIR NODE,Air,0
 Node,75,ZN_1_FLR_1_SEC_5 RETURN AIR NODE,Air,0
 Node,76,ZN_1_FLR_1_SEC_1 PTAC OA NODE,Air,1
 Node,77,ZN_1_FLR_1_SEC_2 PTAC OA NODE,Air,1
 Node,78,ZN_1_FLR_1_SEC_3 PTAC OA NODE,Air,1
 Node,79,ZN_1_FLR_1_SEC_4 PTAC OA NODE,Air,1
 Node,80,ZN_1_FLR_1_SEC_5 PTAC OA NODE,Air,1
 Node,81,SOFC AIR HR OUTLET,Air,0
 Node,82,SOFC AIR OUTLET NODE,Air,0
 Node,83,ZN_1_FLR_1_SEC_1 PTACDXCOOL INLET,Air,1
 Node,84,ZN_1_FLR_1_SEC_1 PTAC RELIEF NODE,Air,0
 Node,85,ZN_1_FLR_1_SEC_2 PTACDXCOOL INLET,Air,1
 Node,86,ZN_1_FLR_1_SEC_2 PTAC RELIEF NODE,Air,0
 Node,87,ZN_1_FLR_1_SEC_3 PTACDXCOOL INLET,Air,1
 Node,88,ZN_1_FLR_1_SEC_3 PTAC RELIEF NODE,Air,0
 Node,89,ZN_1_FLR_1_SEC_4 PTACDXCOOL INLET,Air,1
 Node,90,ZN_1_FLR_1_SEC_4 PTAC RELIEF NODE,Air,0
 Node,91,ZN_1_FLR_1_SEC_5 PTACDXCOOL INLET,Air,1
 Node,92,ZN_1_FLR_1_SEC_5 PTAC RELIEF NODE,Air,0
 Node,93,ZN_1_FLR_1_SEC_1 PTACFAN INLET,Air,1
 Node,94,ZN_1_FLR_1_SEC_2 PTACFAN INLET,Air,1
 Node,95,ZN_1_FLR_1_SEC_3 PTACFAN INLET,Air,1
 Node,96,ZN_1_FLR_1_SEC_4 PTACFAN INLET,Air,1
 Node,97,ZN_1_FLR_1_SEC_5 PTACFAN INLET,Air,1
 Node,98,ZN_1_FLR_1_SEC_1 PTAC POST CC NODE,Air,1
 Node,99,ZN_1_FLR_1_SEC_2 PTAC POST CC NODE,Air,1
 Node,100,ZN_1_FLR_1_SEC_3 PTAC POST CC NODE,Air,1
 Node,101,ZN_1_FLR_1_SEC_4 PTAC POST CC NODE,Air,1
 Node,102,ZN_1_FLR_1_SEC_5 PTAC POST CC NODE,Air,1
! ===============================================================
! Suspicious nodes have 0 references.  It is normal for some nodes, however.
! Listing nodes with 0 references (culled from previous list):
! <Suspicious Node>,<NodeNumber>,<Node Name>,<Node Fluid Type>,<# Times Node Referenced After Definition>
 Suspicious Node,66,ZN_1_FLR_1_SEC_1 AIR NODE,Air,0
 Suspicious Node,67,ZN_1_FLR_1_SEC_1 RETURN AIR NODE,Air,0
 Suspicious Node,68,ZN_1_FLR_1_SEC_2 AIR NODE,Air,0
 Suspicious Node,69,ZN_1_FLR_1_SEC_2 RETURN AIR NODE,Air,0
 Suspicious Node,70,ZN_1_FLR_1_SEC_3 AIR NODE,Air,0
 Suspicious Node,71,ZN_1_FLR_1_SEC_3 RETURN AIR NODE,Air,0
 Suspicious Node,72,ZN_1_FLR_1_SEC_4 AIR NODE,Air,0
 Suspicious Node,73,ZN_1_FLR_1_SEC_4 RETURN AIR NODE,Air,0
 Suspicious Node,74,ZN_1_FLR_1_SEC_5 AIR NODE,Air,0
 Suspicious Node,75,ZN_1_FLR_1_SEC_5 RETURN AIR NODE,Air,0
 Suspicious Node,81,SOFC AIR HR OUTLET,Air,0
 Suspicious Node,82,SOFC AIR OUTLET NODE,Air,0
 Suspicious Node,84,ZN_1_FLR_1_SEC_1 PTAC RELIEF NODE,Air,0
 Suspicious Node,86,ZN_1_FLR_1_SEC_2 PTAC RELIEF NODE,Air,0
 Suspicious Node,88,ZN_1_FLR_1_SEC_3 PTAC RELIEF NODE,Air,0
 Suspicious Node,90,ZN_1_FLR_1_SEC_4 PTAC RELIEF NODE,Air,0
 Suspicious Node,92,ZN_1_FLR_1_SEC_5 PTAC RELIEF NODE,Air,0
! ===============================================================
! <#Branch Lists>,<Number of Branch Lists>
 #Branch Lists,4
! <Branch List>,<Branch List Count>,<Branch List Name>,<Loop Name>,<Loop Type>,<Number of Branches>
! <Branch>,<Branch Count>,<Branch Name>,<Loop Name>,<Loop Type>,<Branch Inlet Node Name>,<Branch Outlet Node Name>
 Branch List,1,SHWSYS1 SUPPLY BRANCHES,SHWSYS1,Plant Supply,4
   Branch,1,SHWSYS1 SUPPLY INLET BRANCH,SHWSYS1,Plant Supply,SHWSYS1 SUPPLY INLET NODE,SHWSYS1 WATER INLET NODEVIACONNECTOR
   Branch,2,SHWSYS1 SUPPLY EQUIPMENT BRANCH,SHWSYS1,Plant Supply,SHWSYS1 WATER INLET NODE,SHWSYS1 WATER OUTLET NODE
   Branch,3,SHWSYS1 SUPPLY EQUIPMENT BYPASS BRANCH,SHWSYS1,Plant Supply,SHWSYS1 SUPPLY EQUIP BYPASS INLET NODE,SHWSYS1 SUPPLY EQUIP BYPASS OUTLET NODE
   Branch,4,SHWSYS1 SUPPLY OUTLET BRANCH,SHWSYS1,Plant Supply,SHWSYS1 SUPPLY MIXER-SHWSYS1 SUPPLY OUTLET PIPE,SHWSYS1 SUPPLY OUTLET NODE
 Branch List,2,SHWSYS1 DEMAND BRANCHES,SHWSYS1,Plant Demand,13
   Branch,1,SHWSYS1 DEMAND INLET BRANCH,SHWSYS1,Plant Demand,SHWSYS1 DEMAND INLET NODE,SHWSYS1 DEMAND INLET PIPE-SHWSYS1 DEMAND MIXER
   Branch,2,SHWSYS1 DEMAND LOAD BRANCH 1,SHWSYS1,Plant Demand,ZN_1_FLR_1_SEC_1SHW_DEFAULT WATER INLET NODE,ZN_1_FLR_1_SEC_1SHW_DEFAULT WATER OUTLET NODE
   Branch,3,SHWSYS1 DEMAND LOAD BRANCH 2,SHWSYS1,Plant Demand,ZN_1_FLR_1_SEC_2SHW_DEFAULT WATER INLET NODE,ZN_1_FLR_1_SEC_2SHW_DEFAULT WATER OUTLET NODE
   Branch,4,SHWSYS1 DEMAND LOAD BRANCH 3,SHWSYS1,Plant Demand,ZN_1_FLR_1_SEC_3SHW_DEFAULT WATER INLET NODE,ZN_1_FLR_1_SEC_3SHW_DEFAULT WATER OUTLET NODE
   Branch,5,SHWSYS1 DEMAND LOAD BRANCH 4,SHWSYS1,Plant Demand,ZN_1_FLR_1_SEC_4SHW_DEFAULT WATER INLET NODE,ZN_1_FLR_1_SEC_4SHW_DEFAULT WATER OUTLET NODE
   Branch,6,SHWSYS1 DEMAND LOAD BRANCH 5,SHWSYS1,Plant Demand,ZN_1_FLR_1_SEC_5SHW_DEFAULT WATER INLET NODE,ZN_1_FLR_1_SEC_5SHW_DEFAULT WATER OUTLET NODE
   Branch,7,SHWSYS1 DEMAND LOAD BRANCH 6,SHWSYS1,Plant Demand,ZN_1_FLR_1_SEC_1 PTAC HEAT COILDEMAND INLET NODE,ZN_1_FLR_1_SEC_1 PTAC HEAT COILDEMAND OUTLET NODE
   Branch,8,SHWSYS1 DEMAND LOAD BRANCH 7,SHWSYS1,Plant Demand,ZN_1_FLR_1_SEC_2 PTAC HEAT COILDEMAND INLET NODE,ZN_1_FLR_1_SEC_2 PTAC HEAT COILDEMAND OUTLET NODE
   Branch,9,SHWSYS1 DEMAND LOAD BRANCH 8,SHWSYS1,Plant Demand,ZN_1_FLR_1_SEC_3 PTAC HEAT COILDEMAND INLET NODE,ZN_1_FLR_1_SEC_3 PTAC HEAT COILDEMAND OUTLET NODE
   Branch,10,SHWSYS1 DEMAND LOAD BRANCH 9,SHWSYS1,Plant Demand,ZN_1_FLR_1_SEC_4 PTAC HEAT COILDEMAND INLET NODE,ZN_1_FLR_1_SEC_4 PTAC HEAT COILDEMAND OUTLET NODE
   Branch,11,SHWSYS1 DEMAND LOAD BRANCH 10,SHWSYS1,Plant Demand,ZN_1_FLR_1_SEC_5 PTAC HEAT COILDEMAND INLET NODE,ZN_1_FLR_1_SEC_5 PTAC HEAT COILDEMAND OUTLET NODE
   Branch,12,SHWSYS1 DEMAND BYPASS BRANCH,SHWSYS1,Plant Demand,SHWSYS1 DEMAND BYPASS PIPE INLET NODE,SHWSYS1 DEMAND BYPASS PIPE OUTLET NODE
   Branch,13,SHWSYS1 DEMAND OUTLET BRANCH,SHWSYS1,Plant Demand,SHWSYS1 DEMAND MIXER-SHWSYS1 DEMAND OUTLET PIPE,SHWSYS1 DEMAND OUTLET NODE
 Branch List,3,MICROCHP SENERTECH SUPPLY BRANCHES,MICROCHP SENERTECH,Plant Supply,5
   Branch,1,MICROCHP SENERTECH SUPPLY INLET BRANCH,MICROCHP SENERTECH,Plant Supply,MICROCHP SENERTECH SUPPLY INLET NODE,MICROCHP SENERTECH PUMP-MICROCOGEN1NODEVIACONNECTOR
   Branch,2,MICROCHP SENERTECH SUPPLY EQUIPMENT BRANCH,MICROCHP SENERTECH,Plant Supply,MICROCHP SENERTECH PUMP-MICROCOGEN1NODE,MICROCHP SENERTECH SUPPLY EQUIPMENT OUTLET NODE
   Branch,3,SOFC SUPPLY EQUIPMENT BRANCH,MICROCHP SENERTECH,Plant Supply,SMALL SOFC HEAT REC INLET NODE,SMALL SOFC HEAT REC OUTLET NODE
   Branch,4,MICROCHP SENERTECH SUPPLY EQUIPMENT BYPASS BRANCH,MICROCHP SENERTECH,Plant Supply,MICROCHP SENERTECH SUPPLY EQUIP BYPASS INLET NODE,MICROCHP SENERTECH SUPPLY EQUIP BYPASS OUTLET NODE
   Branch,5,MICROCHP SENERTECH SUPPLY OUTLET BRANCH,MICROCHP SENERTECH,Plant Supply,MICROCHP SENERTECH SUPPLY MIXER-MICROCHP SENERTECH SUPPLY OUTLET PIPE,MICROCHP SENERTECH SUPPLY OUTLET NODE
 Branch List,4,MICROCHP SENERTECH DEMAND BRANCHES,MICROCHP SENERTECH,Plant Demand,4
   Branch,1,MICROCHP SENERTECH DEMAND INLET BRANCH,MICROCHP SENERTECH,Plant Demand,MICROCHP SENERTECH DEMAND INLET NODE,MICROCHP SENERTECH DEMAND INLET PIPE-MICROCHP SENERTECH DEMAND MIXER
   Branch,2,MICROCHP SENERTECH DEMAND LOAD BRANCH 1,MICROCHP SENERTECH,Plant Demand,MICROCHP SENERTECH WATER INLET NODE,MICROCHP SENERTECH WATER OUTLET NODE
   Branch,3,MICROCHP SENERTECH DEMAND BYPASS BRANCH,MICROCHP SENERTECH,Plant Demand,MICROCHP SENERTECH DEMAND BYPASS PIPE INLET NODE,MICROCHP SENERTECH DEMAND BYPASS PIPE OUTLET NODE
   Branch,4,MICROCHP SENERTECH DEMAND OUTLET BRANCH,MICROCHP SENERTECH,Plant Demand,MICROCHP SENERTECH DEMAND MIXER-MICROCHP SENERTECH DEMAND OUTLET PIPE,MICROCHP SENERTECH DEMAND OUTLET NODE
! ===============================================================
! <#Supply Air Paths>,<Number of Supply Air Paths>
 #Supply Air Paths,0
! <Supply Air Path>,<Supply Air Path Count>,<Supply Air Path Name>,<AirLoopHVAC Name>
! <#Components on Supply Air Path>,<Number of Components>
! <Supply Air Path Component>,<Component Count>,<Component Type>,<Component Name>,<AirLoopHVAC Name>
! <#Outlet Nodes on Supply Air Path Component>,<Number of Nodes>
! <Supply Air Path Component Nodes>,<Node Count>,<Component Type>,<Component Name>,<Inlet Node Name>,<Outlet Node Name>,<AirLoopHVAC Name>
! ===============================================================
! <#Return Air Paths>,<Number of Return Air Paths>
 #Return Air Paths,0
! <Return Air Path>,<Return Air Path Count>,<Return Air Path Name>,<AirLoopHVAC Name>
! <#Components on Return Air Path>,<Number of Components>
! <Return Air Path Component>,<Component Count>,<Component Type>,<Component Name>,<AirLoopHVAC Name>
! <#Inlet Nodes on Return Air Path Component>,<Number of Nodes>
! <Return Air Path Component Nodes>,<Node Count>,<Component Type>,<Component Name>,<Inlet Node Name>,<Outlet Node Name>,<AirLoopHVAC Name>
! ===============================================================
! #Outdoor Air Nodes,<Number of Outdoor Air Nodes>
 #Outdoor Air Nodes,5
! <Outdoor Air Node>,<NodeNumber>,<Node Name>
 Outdoor Air Node,76,ZN_1_FLR_1_SEC_1 PTAC OA NODE
 Outdoor Air Node,77,ZN_1_FLR_1_SEC_2 PTAC OA NODE
 Outdoor Air Node,78,ZN_1_FLR_1_SEC_3 PTAC OA NODE
 Outdoor Air Node,79,ZN_1_FLR_1_SEC_4 PTAC OA NODE
 Outdoor Air Node,80,ZN_1_FLR_1_SEC_5 PTAC OA NODE
! ===============================================================
! <#Component Sets>,<Number of Component Sets>
 #Component Sets,46
! <Component Set>,<Component Set Count>,<Parent Object Type>,<Parent Object Name>,<Component Type>,<Component Name>,<Inlet Node ID>,<Outlet Node ID>,<Description>
 Component Set,1,BRANCH,SHWSYS1 SUPPLY INLET BRANCH,PUMP:VARIABLESPEED,SHWSYS1 PUMP,SHWSYS1 SUPPLY INLET NODE,SHWSYS1 WATER INLET NODEVIACONNECTOR,Water Nodes
 Component Set,2,BRANCH,SHWSYS1 SUPPLY EQUIPMENT BRANCH,WATERHEATER:STRATIFIED,SHWSYS1 WATER HEATER,SHWSYS1 WATER INLET NODE,SHWSYS1 WATER OUTLET NODE,Use Side Water Nodes
 Component Set,3,BRANCH,SHWSYS1 SUPPLY EQUIPMENT BYPASS BRANCH,PIPE:ADIABATIC,SHWSYS1 SUPPLY EQUIPMENT BYPASS PIPE,SHWSYS1 SUPPLY EQUIP BYPASS INLET NODE,SHWSYS1 SUPPLY EQUIP BYPASS OUTLET NODE,Pipe Nodes
 Component Set,4,BRANCH,SHWSYS1 SUPPLY OUTLET BRANCH,PIPE:ADIABATIC,SHWSYS1 SUPPLY OUTLET PIPE,SHWSYS1 SUPPLY MIXER-SHWSYS1 SUPPLY OUTLET PIPE,SHWSYS1 SUPPLY OUTLET NODE,Pipe Nodes
 Component Set,5,BRANCH,SHWSYS1 DEMAND INLET BRANCH,PIPE:ADIABATIC,SHWSYS1 DEMAND INLET PIPE,SHWSYS1 DEMAND INLET NODE,SHWSYS1 DEMAND INLET PIPE-SHWSYS1 DEMAND MIXER,Pipe Nodes
 Component Set,6,BRANCH,SHWSYS1 DEMAND LOAD BRANCH 1,WATERUSE:CONNECTIONS,ZN_1_FLR_1_SEC_1SHW_DEFAULT,ZN_1_FLR_1_SEC_1SHW_DEFAULT WATER INLET NODE,ZN_1_FLR_1_SEC_1SHW_DEFAULT WATER OUTLET NODE,DHW Nodes
 Component Set,7,BRANCH,SHWSYS1 DEMAND LOAD BRANCH 2,WATERUSE:CONNECTIONS,ZN_1_FLR_1_SEC_2SHW_DEFAULT,ZN_1_FLR_1_SEC_2SHW_DEFAULT WATER INLET NODE,ZN_1_FLR_1_SEC_2SHW_DEFAULT WATER OUTLET NODE,DHW Nodes
 Component Set,8,BRANCH,SHWSYS1 DEMAND LOAD BRANCH 3,WATERUSE:CONNECTIONS,ZN_1_FLR_1_SEC_3SHW_DEFAULT,ZN_1_FLR_1_SEC_3SHW_DEFAULT WATER INLET NODE,ZN_1_FLR_1_SEC_3SHW_DEFAULT WATER OUTLET NODE,DHW Nodes
 Component Set,9,BRANCH,SHWSYS1 DEMAND LOAD BRANCH 4,WATERUSE:CONNECTIONS,ZN_1_FLR_1_SEC_4SHW_DEFAULT,ZN_1_FLR_1_SEC_4SHW_DEFAULT WATER INLET NODE,ZN_1_FLR_1_SEC_4SHW_DEFAULT WATER OUTLET NODE,DHW Nodes
 Component Set,10,BRANCH,SHWSYS1 DEMAND LOAD BRANCH 5,WATERUSE:CONNECTIONS,ZN_1_FLR_1_SEC_5SHW_DEFAULT,ZN_1_FLR_1_SEC_5SHW_DEFAULT WATER INLET NODE,ZN_1_FLR_1_SEC_5SHW_DEFAULT WATER OUTLET NODE,DHW Nodes
 Component Set,11,BRANCH,SHWSYS1 DEMAND LOAD BRANCH 6,COIL:HEATING:WATER,ZN_1_FLR_1_SEC_1 PTAC HEAT COIL,ZN_1_FLR_1_SEC_1 PTAC HEAT COILDEMAND INLET NODE,ZN_1_FLR_1_SEC_1 PTAC HEAT COILDEMAND OUTLET NODE,Water Nodes
 Component Set,12,BRANCH,SHWSYS1 DEMAND LOAD BRANCH 7,COIL:HEATING:WATER,ZN_1_FLR_1_SEC_2 PTAC HEAT COIL,ZN_1_FLR_1_SEC_2 PTAC HEAT COILDEMAND INLET NODE,ZN_1_FLR_1_SEC_2 PTAC HEAT COILDEMAND OUTLET NODE,Water Nodes
 Component Set,13,BRANCH,SHWSYS1 DEMAND LOAD BRANCH 8,COIL:HEATING:WATER,ZN_1_FLR_1_SEC_3 PTAC HEAT COIL,ZN_1_FLR_1_SEC_3 PTAC HEAT COILDEMAND INLET NODE,ZN_1_FLR_1_SEC_3 PTAC HEAT COILDEMAND OUTLET NODE,Water Nodes
 Component Set,14,BRANCH,SHWSYS1 DEMAND LOAD BRANCH 9,COIL:HEATING:WATER,ZN_1_FLR_1_SEC_4 PTAC HEAT COIL,ZN_1_FLR_1_SEC_4 PTAC HEAT COILDEMAND INLET NODE,ZN_1_FLR_1_SEC_4 PTAC HEAT COILDEMAND OUTLET NODE,Water Nodes
 Component Set,15,BRANCH,SHWSYS1 DEMAND LOAD BRANCH 10,COIL:HEATING:WATER,ZN_1_FLR_1_SEC_5 PTAC HEAT COIL,ZN_1_FLR_1_SEC_5 PTAC HEAT COILDEMAND INLET NODE,ZN_1_FLR_1_SEC_5 PTAC HEAT COILDEMAND OUTLET NODE,Water Nodes
 Component Set,16,BRANCH,SHWSYS1 DEMAND BYPASS BRANCH,PIPE:ADIABATIC,SHWSYS1 DEMAND BYPASS PIPE,SHWSYS1 DEMAND BYPASS PIPE INLET NODE,SHWSYS1 DEMAND BYPASS PIPE OUTLET NODE,Pipe Nodes
 Component Set,17,BRANCH,SHWSYS1 DEMAND OUTLET BRANCH,PIPE:ADIABATIC,SHWSYS1 DEMAND OUTLET PIPE,SHWSYS1 DEMAND MIXER-SHWSYS1 DEMAND OUTLET PIPE,SHWSYS1 DEMAND OUTLET NODE,Pipe Nodes
 Component Set,18,BRANCH,MICROCHP SENERTECH SUPPLY INLET BRANCH,PUMP:VARIABLESPEED,MICROCHP SENERTECH PUMP,MICROCHP SENERTECH SUPPLY INLET NODE,MICROCHP SENERTECH PUMP-MICROCOGEN1NODEVIACONNECTOR,Water Nodes
 Component Set,19,BRANCH,MICROCHP SENERTECH SUPPLY EQUIPMENT BRANCH,GENERATOR:MICROCHP,MICROCOGEN1,MICROCHP SENERTECH PUMP-MICROCOGEN1NODE,MICROCHP SENERTECH SUPPLY EQUIPMENT OUTLET NODE,Heat Recovery Nodes
 Component Set,20,BRANCH,SOFC SUPPLY EQUIPMENT BRANCH,GENERATOR:FUELCELL:EXHAUSTGASTOWATERHEATEXCHANGER,FCT SOFC EXHAUST HX,SMALL SOFC HEAT REC INLET NODE,SMALL SOFC HEAT REC OUTLET NODE,Heat Recovery Nodes
 Component Set,21,BRANCH,MICROCHP SENERTECH SUPPLY EQUIPMENT BYPASS BRANCH,PIPE:ADIABATIC,MICROCHP SENERTECH SUPPLY EQUIPMENT BYPASS PIPE,MICROCHP SENERTECH SUPPLY EQUIP BYPASS INLET NODE,MICROCHP SENERTECH SUPPLY EQUIP BYPASS OUTLET NODE,Pipe Nodes
 Component Set,22,BRANCH,MICROCHP SENERTECH SUPPLY OUTLET BRANCH,PIPE:ADIABATIC,MICROCHP SENERTECH SUPPLY OUTLET PIPE,MICROCHP SENERTECH SUPPLY MIXER-MICROCHP SENERTECH SUPPLY OUTLET PIPE,MICROCHP SENERTECH SUPPLY OUTLET NODE,Pipe Nodes
 Component Set,23,BRANCH,MICROCHP SENERTECH DEMAND INLET BRANCH,PIPE:ADIABATIC,MICROCHP SENERTECH DEMAND INLET PIPE,MICROCHP SENERTECH DEMAND INLET NODE,MICROCHP SENERTECH DEMAND INLET PIPE-MICROCHP SENERTECH DEMAND MIXER,Pipe Nodes
 Component Set,24,BRANCH,MICROCHP SENERTECH DEMAND LOAD BRANCH 1,WATERHEATER:STRATIFIED,SHWSYS1 WATER HEATER,MICROCHP SENERTECH WATER INLET NODE,MICROCHP SENERTECH WATER OUTLET NODE,Source Side Water Nodes
 Component Set,25,BRANCH,MICROCHP SENERTECH DEMAND BYPASS BRANCH,PIPE:ADIABATIC,MICROCHP SENERTECH DEMAND BYPASS PIPE,MICROCHP SENERTECH DEMAND BYPASS PIPE INLET NODE,MICROCHP SENERTECH DEMAND BYPASS PIPE OUTLET NODE,Pipe Nodes
 Component Set,26,BRANCH,MICROCHP SENERTECH DEMAND OUTLET BRANCH,PIPE:ADIABATIC,MICROCHP SENERTECH DEMAND OUTLET PIPE,MICROCHP SENERTECH DEMAND MIXER-MICROCHP SENERTECH DEMAND OUTLET PIPE,MICROCHP SENERTECH DEMAND OUTLET NODE,Pipe Nodes
 Component Set,27,ZONEHVAC:PACKAGEDTERMINALAIRCONDITIONER,ZN_1_FLR_1_SEC_1 PTAC,OUTDOORAIR:MIXER,ZN_1_FLR_1_SEC_1 PTAC OA MIXER,ZN_1_FLR_1_SEC_1 PTAC OA NODE,ZN_1_FLR_1_SEC_1 PTACDXCOOL INLET,Air Nodes
 Component Set,28,ZONEHVAC:PACKAGEDTERMINALAIRCONDITIONER,ZN_1_FLR_1_SEC_2 PTAC,OUTDOORAIR:MIXER,ZN_1_FLR_1_SEC_2 PTAC OA MIXER,ZN_1_FLR_1_SEC_2 PTAC OA NODE,ZN_1_FLR_1_SEC_2 PTACDXCOOL INLET,Air Nodes
 Component Set,29,ZONEHVAC:PACKAGEDTERMINALAIRCONDITIONER,ZN_1_FLR_1_SEC_3 PTAC,OUTDOORAIR:MIXER,ZN_1_FLR_1_SEC_3 PTAC OA MIXER,ZN_1_FLR_1_SEC_3 PTAC OA NODE,ZN_1_FLR_1_SEC_3 PTACDXCOOL INLET,Air Nodes
 Component Set,30,ZONEHVAC:PACKAGEDTERMINALAIRCONDITIONER,ZN_1_FLR_1_SEC_4 PTAC,OUTDOORAIR:MIXER,ZN_1_FLR_1_SEC_4 PTAC OA MIXER,ZN_1_FLR_1_SEC_4 PTAC OA NODE,ZN_1_FLR_1_SEC_4 PTACDXCOOL INLET,Air Nodes
 Component Set,31,ZONEHVAC:PACKAGEDTERMINALAIRCONDITIONER,ZN_1_FLR_1_SEC_5 PTAC,OUTDOORAIR:MIXER,ZN_1_FLR_1_SEC_5 PTAC OA MIXER,ZN_1_FLR_1_SEC_5 PTAC OA NODE,ZN_1_FLR_1_SEC_5 PTACDXCOOL INLET,Air Nodes
 Component Set,32,ZONEHVAC:PACKAGEDTERMINALAIRCONDITIONER,ZN_1_FLR_1_SEC_1 PTAC,FAN:ONOFF,ZN_1_FLR_1_SEC_1 PTACFAN,ZN_1_FLR_1_SEC_1 PTACFAN INLET,ZN_1_FLR_1_SEC_1 INLET NODE,Air Nodes
 Component Set,33,ZONEHVAC:PACKAGEDTERMINALAIRCONDITIONER,ZN_1_FLR_1_SEC_2 PTAC,FAN:ONOFF,ZN_1_FLR_1_SEC_2 PTACFAN,ZN_1_FLR_1_SEC_2 PTACFAN INLET,ZN_1_FLR_1_SEC_2 INLET NODE,Air Nodes
 Component Set,34,ZONEHVAC:PACKAGEDTERMINALAIRCONDITIONER,ZN_1_FLR_1_SEC_3 PTAC,FAN:ONOFF,ZN_1_FLR_1_SEC_3 PTACFAN,ZN_1_FLR_1_SEC_3 PTACFAN INLET,ZN_1_FLR_1_SEC_3 INLET NODE,Air Nodes
 Component Set,35,ZONEHVAC:PACKAGEDTERMINALAIRCONDITIONER,ZN_1_FLR_1_SEC_4 PTAC,FAN:ONOFF,ZN_1_FLR_1_SEC_4 PTACFAN,ZN_1_FLR_1_SEC_4 PTACFAN INLET,ZN_1_FLR_1_SEC_4 INLET NODE,Air Nodes
 Component Set,36,ZONEHVAC:PACKAGEDTERMINALAIRCONDITIONER,ZN_1_FLR_1_SEC_5 PTAC,FAN:ONOFF,ZN_1_FLR_1_SEC_5 PTACFAN,ZN_1_FLR_1_SEC_5 PTACFAN INLET,ZN_1_FLR_1_SEC_5 INLET NODE,Air Nodes
 Component Set,37,ZONEHVAC:PACKAGEDTERMINALAIRCONDITIONER,ZN_1_FLR_1_SEC_1 PTAC,COIL:HEATING:WATER,ZN_1_FLR_1_SEC_1 PTAC HEAT COIL,ZN_1_FLR_1_SEC_1 PTAC POST CC NODE,ZN_1_FLR_1_SEC_1 PTACFAN INLET,Air Nodes
 Component Set,38,ZONEHVAC:PACKAGEDTERMINALAIRCONDITIONER,ZN_1_FLR_1_SEC_2 PTAC,COIL:HEATING:WATER,ZN_1_FLR_1_SEC_2 PTAC HEAT COIL,ZN_1_FLR_1_SEC_2 PTAC POST CC NODE,ZN_1_FLR_1_SEC_2 PTACFAN INLET,Air Nodes
 Component Set,39,ZONEHVAC:PACKAGEDTERMINALAIRCONDITIONER,ZN_1_FLR_1_SEC_3 PTAC,COIL:HEATING:WATER,ZN_1_FLR_1_SEC_3 PTAC HEAT COIL,ZN_1_FLR_1_SEC_3 PTAC POST CC NODE,ZN_1_FLR_1_SEC_3 PTACFAN INLET,Air Nodes
 Component Set,40,ZONEHVAC:PACKAGEDTERMINALAIRCONDITIONER,ZN_1_FLR_1_SEC_4 PTAC,COIL:HEATING:WATER,ZN_1_FLR_1_SEC_4 PTAC HEAT COIL,ZN_1_FLR_1_SEC_4 PTAC POST CC NODE,ZN_1_FLR_1_SEC_4 PTACFAN INLET,Air Nodes
 Component Set,41,ZONEHVAC:PACKAGEDTERMINALAIRCONDITIONER,ZN_1_FLR_1_SEC_5 PTAC,COIL:HEATING:WATER,ZN_1_FLR_1_SEC_5 PTAC HEAT COIL,ZN_1_FLR_1_SEC_5 PTAC POST CC NODE,ZN_1_FLR_1_SEC_5 PTACFAN INLET,Air Nodes
 Component Set,42,ZONEHVAC:PACKAGEDTERMINALAIRCONDITIONER,ZN_1_FLR_1_SEC_1 PTAC,COIL:COOLING:DX:SINGLESPEED,ZN_1_FLR_1_SEC_1 PTAC DXCOIL,ZN_1_FLR_1_SEC_1 PTACDXCOOL INLET,ZN_1_FLR_1_SEC_1 PTAC POST CC NODE,Air Nodes
 Component Set,43,ZONEHVAC:PACKAGEDTERMINALAIRCONDITIONER,ZN_1_FLR_1_SEC_2 PTAC,COIL:COOLING:DX:SINGLESPEED,ZN_1_FLR_1_SEC_2 PTAC DXCOIL,ZN_1_FLR_1_SEC_2 PTACDXCOOL INLET,ZN_1_FLR_1_SEC_2 PTAC POST CC NODE,Air Nodes
 Component Set,44,ZONEHVAC:PACKAGEDTERMINALAIRCONDITIONER,ZN_1_FLR_1_SEC_3 PTAC,COIL:COOLING:DX:SINGLESPEED,ZN_1_FLR_1_SEC_3 PTAC DXCOIL,ZN_1_FLR_1_SEC_3 PTACDXCOOL INLET,ZN_1_FLR_1_SEC_3 PTAC POST CC NODE,Air Nodes
 Component Set,45,ZONEHVAC:PACKAGEDTERMINALAIRCONDITIONER,ZN_1_FLR_1_SEC_4 PTAC,COIL:COOLING:DX:SINGLESPEED,ZN_1_FLR_1_SEC_4 PTAC DXCOIL,ZN_1_FLR_1_SEC_4 PTACDXCOOL INLET,ZN_1_FLR_1_SEC_4 PTAC POST CC NODE,Air Nodes
 Component Set,46,ZONEHVAC:PACKAGEDTERMINALAIRCONDITIONER,ZN_1_FLR_1_SEC_5 PTAC,COIL:COOLING:DX:SINGLESPEED,ZN_1_FLR_1_SEC_5 PTAC DXCOIL,ZN_1_FLR_1_SEC_5 PTACDXCOOL INLET,ZN_1_FLR_1_SEC_5 PTAC POST CC NODE,Air Nodes
! ===============================================================
! <# Plant Loops>,<Number of Plant Loops>
 #Plant Loops,2
! <Plant Loop>,<Plant Loop Name>,<Loop Type>,<Inlet Node Name>,<Outlet Node Name>,<Branch List>,<Connector List>
! <Plant Loop Connector>,<Connector Type>,<Connector Name>,<Loop Name>,<Loop Type>,<Number of Inlets/Outlets>
! <Plant Loop Connector Branches>,<Connector Node Count>,<Connector Type>,<Connector Name>,<Inlet Branch>,<Outlet Branch>,<Loop Name>,<Loop Type>
! <Plant Loop Connector Nodes>,<Connector Node Count>,<Connector Type>,<Connector Name>,<Inlet Node>,<Outlet Node>,<Loop Name>,<Loop Type>
! <Plant Loop Supply Connection>,<Plant Loop Name>,<Supply Side Outlet Node Name>,<Demand Side Inlet Node Name>
! <Plant Loop Return Connection>,<Plant Loop Name>,<Demand Side Outlet Node Name>,<Supply Side Inlet Node Name>
 Plant Loop,SHWSYS1,Demand,SHWSYS1 DEMAND INLET NODE,SHWSYS1 DEMAND OUTLET NODE,SHWSYS1 DEMAND BRANCHES,SHWSYS1 DEMAND CONNECTORS
   Plant Loop Connector,Splitter,SHWSYS1 DEMAND SPLITTER,SHWSYS1,Demand,11
     Plant Loop Connector Branches,1,Splitter,SHWSYS1 DEMAND SPLITTER,SHWSYS1 DEMAND INLET BRANCH,SHWSYS1 DEMAND LOAD BRANCH 1,SHWSYS1,Demand
     Plant Loop Connector Nodes,   1,Splitter,SHWSYS1 DEMAND SPLITTER,SHWSYS1 DEMAND INLET PIPE-SHWSYS1 DEMAND MIXER,ZN_1_FLR_1_SEC_1SHW_DEFAULT WATER INLET NODE,SHWSYS1,Demand
     Plant Loop Connector Branches,2,Splitter,SHWSYS1 DEMAND SPLITTER,SHWSYS1 DEMAND INLET BRANCH,SHWSYS1 DEMAND LOAD BRANCH 2,SHWSYS1,Demand
     Plant Loop Connector Nodes,   2,Splitter,SHWSYS1 DEMAND SPLITTER,SHWSYS1 DEMAND INLET PIPE-SHWSYS1 DEMAND MIXER,ZN_1_FLR_1_SEC_2SHW_DEFAULT WATER INLET NODE,SHWSYS1,Demand
     Plant Loop Connector Branches,3,Splitter,SHWSYS1 DEMAND SPLITTER,SHWSYS1 DEMAND INLET BRANCH,SHWSYS1 DEMAND LOAD BRANCH 3,SHWSYS1,Demand
     Plant Loop Connector Nodes,   3,Splitter,SHWSYS1 DEMAND SPLITTER,SHWSYS1 DEMAND INLET PIPE-SHWSYS1 DEMAND MIXER,ZN_1_FLR_1_SEC_3SHW_DEFAULT WATER INLET NODE,SHWSYS1,Demand
     Plant Loop Connector Branches,4,Splitter,SHWSYS1 DEMAND SPLITTER,SHWSYS1 DEMAND INLET BRANCH,SHWSYS1 DEMAND LOAD BRANCH 4,SHWSYS1,Demand
     Plant Loop Connector Nodes,   4,Splitter,SHWSYS1 DEMAND SPLITTER,SHWSYS1 DEMAND INLET PIPE-SHWSYS1 DEMAND MIXER,ZN_1_FLR_1_SEC_4SHW_DEFAULT WATER INLET NODE,SHWSYS1,Demand
     Plant Loop Connector Branches,5,Splitter,SHWSYS1 DEMAND SPLITTER,SHWSYS1 DEMAND INLET BRANCH,SHWSYS1 DEMAND LOAD BRANCH 5,SHWSYS1,Demand
     Plant Loop Connector Nodes,   5,Splitter,SHWSYS1 DEMAND SPLITTER,SHWSYS1 DEMAND INLET PIPE-SHWSYS1 DEMAND MIXER,ZN_1_FLR_1_SEC_5SHW_DEFAULT WATER INLET NODE,SHWSYS1,Demand
     Plant Loop Connector Branches,6,Splitter,SHWSYS1 DEMAND SPLITTER,SHWSYS1 DEMAND INLET BRANCH,SHWSYS1 DEMAND LOAD BRANCH 6,SHWSYS1,Demand
     Plant Loop Connector Nodes,   6,Splitter,SHWSYS1 DEMAND SPLITTER,SHWSYS1 DEMAND INLET PIPE-SHWSYS1 DEMAND MIXER,ZN_1_FLR_1_SEC_1 PTAC HEAT COILDEMAND INLET NODE,SHWSYS1,Demand
     Plant Loop Connector Branches,7,Splitter,SHWSYS1 DEMAND SPLITTER,SHWSYS1 DEMAND INLET BRANCH,SHWSYS1 DEMAND LOAD BRANCH 7,SHWSYS1,Demand
     Plant Loop Connector Nodes,   7,Splitter,SHWSYS1 DEMAND SPLITTER,SHWSYS1 DEMAND INLET PIPE-SHWSYS1 DEMAND MIXER,ZN_1_FLR_1_SEC_2 PTAC HEAT COILDEMAND INLET NODE,SHWSYS1,Demand
     Plant Loop Connector Branches,8,Splitter,SHWSYS1 DEMAND SPLITTER,SHWSYS1 DEMAND INLET BRANCH,SHWSYS1 DEMAND LOAD BRANCH 8,SHWSYS1,Demand
     Plant Loop Connector Nodes,   8,Splitter,SHWSYS1 DEMAND SPLITTER,SHWSYS1 DEMAND INLET PIPE-SHWSYS1 DEMAND MIXER,ZN_1_FLR_1_SEC_3 PTAC HEAT COILDEMAND INLET NODE,SHWSYS1,Demand
     Plant Loop Connector Branches,9,Splitter,SHWSYS1 DEMAND SPLITTER,SHWSYS1 DEMAND INLET BRANCH,SHWSYS1 DEMAND LOAD BRANCH 9,SHWSYS1,Demand
     Plant Loop Connector Nodes,   9,Splitter,SHWSYS1 DEMAND SPLITTER,SHWSYS1 DEMAND INLET PIPE-SHWSYS1 DEMAND MIXER,ZN_1_FLR_1_SEC_4 PTAC HEAT COILDEMAND INLET NODE,SHWSYS1,Demand
     Plant Loop Connector Branches,10,Splitter,SHWSYS1 DEMAND SPLITTER,SHWSYS1 DEMAND INLET BRANCH,SHWSYS1 DEMAND LOAD BRANCH 10,SHWSYS1,Demand
     Plant Loop Connector Nodes,   10,Splitter,SHWSYS1 DEMAND SPLITTER,SHWSYS1 DEMAND INLET PIPE-SHWSYS1 DEMAND MIXER,ZN_1_FLR_1_SEC_5 PTAC HEAT COILDEMAND INLET NODE,SHWSYS1,Demand
     Plant Loop Connector Branches,11,Splitter,SHWSYS1 DEMAND SPLITTER,SHWSYS1 DEMAND INLET BRANCH,SHWSYS1 DEMAND BYPASS BRANCH,SHWSYS1,Demand
     Plant Loop Connector Nodes,   11,Splitter,SHWSYS1 DEMAND SPLITTER,SHWSYS1 DEMAND INLET PIPE-SHWSYS1 DEMAND MIXER,SHWSYS1 DEMAND BYPASS PIPE INLET NODE,SHWSYS1,Demand
   Plant Loop Connector,Mixer,SHWSYS1 DEMAND MIXER,SHWSYS1,Demand,11
     Plant Loop Connector Branches,1,Mixer,SHWSYS1 DEMAND MIXER,SHWSYS1 DEMAND LOAD BRANCH 1,SHWSYS1 DEMAND OUTLET BRANCH,SHWSYS1,Demand
     Plant Loop Connector Nodes,   1,Mixer,SHWSYS1 DEMAND MIXER,ZN_1_FLR_1_SEC_1SHW_DEFAULT WATER OUTLET NODE,SHWSYS1 DEMAND MIXER-SHWSYS1 DEMAND OUTLET PIPE,SHWSYS1,Demand
     Plant Loop Connector Branches,2,Mixer,SHWSYS1 DEMAND MIXER,SHWSYS1 DEMAND LOAD BRANCH 2,SHWSYS1 DEMAND OUTLET BRANCH,SHWSYS1,Demand
     Plant Loop Connector Nodes,   2,Mixer,SHWSYS1 DEMAND MIXER,ZN_1_FLR_1_SEC_2SHW_DEFAULT WATER OUTLET NODE,SHWSYS1 DEMAND MIXER-SHWSYS1 DEMAND OUTLET PIPE,SHWSYS1,Demand
     Plant Loop Connector Branches,3,Mixer,SHWSYS1 DEMAND MIXER,SHWSYS1 DEMAND LOAD BRANCH 3,SHWSYS1 DEMAND OUTLET BRANCH,SHWSYS1,Demand
     Plant Loop Connector Nodes,   3,Mixer,SHWSYS1 DEMAND MIXER,ZN_1_FLR_1_SEC_3SHW_DEFAULT WATER OUTLET NODE,SHWSYS1 DEMAND MIXER-SHWSYS1 DEMAND OUTLET PIPE,SHWSYS1,Demand
     Plant Loop Connector Branches,4,Mixer,SHWSYS1 DEMAND MIXER,SHWSYS1 DEMAND LOAD BRANCH 4,SHWSYS1 DEMAND OUTLET BRANCH,SHWSYS1,Demand
     Plant Loop Connector Nodes,   4,Mixer,SHWSYS1 DEMAND MIXER,ZN_1_FLR_1_SEC_4SHW_DEFAULT WATER OUTLET NODE,SHWSYS1 DEMAND MIXER-SHWSYS1 DEMAND OUTLET PIPE,SHWSYS1,Demand
     Plant Loop Connector Branches,5,Mixer,SHWSYS1 DEMAND MIXER,SHWSYS1 DEMAND LOAD BRANCH 5,SHWSYS1 DEMAND OUTLET BRANCH,SHWSYS1,Demand
     Plant Loop Connector Nodes,   5,Mixer,SHWSYS1 DEMAND MIXER,ZN_1_FLR_1_SEC_5SHW_DEFAULT WATER OUTLET NODE,SHWSYS1 DEMAND MIXER-SHWSYS1 DEMAND OUTLET PIPE,SHWSYS1,Demand
     Plant Loop Connector Branches,6,Mixer,SHWSYS1 DEMAND MIXER,SHWSYS1 DEMAND LOAD BRANCH 6,SHWSYS1 DEMAND OUTLET BRANCH,SHWSYS1,Demand
     Plant Loop Connector Nodes,   6,Mixer,SHWSYS1 DEMAND MIXER,ZN_1_FLR_1_SEC_1 PTAC HEAT COILDEMAND OUTLET NODE,SHWSYS1 DEMAND MIXER-SHWSYS1 DEMAND OUTLET PIPE,SHWSYS1,Demand
     Plant Loop Connector Branches,7,Mixer,SHWSYS1 DEMAND MIXER,SHWSYS1 DEMAND LOAD BRANCH 7,SHWSYS1 DEMAND OUTLET BRANCH,SHWSYS1,Demand
     Plant Loop Connector Nodes,   7,Mixer,SHWSYS1 DEMAND MIXER,ZN_1_FLR_1_SEC_2 PTAC HEAT COILDEMAND OUTLET NODE,SHWSYS1 DEMAND MIXER-SHWSYS1 DEMAND OUTLET PIPE,SHWSYS1,Demand
     Plant Loop Connector Branches,8,Mixer,SHWSYS1 DEMAND MIXER,SHWSYS1 DEMAND LOAD BRANCH 8,SHWSYS1 DEMAND OUTLET BRANCH,SHWSYS1,Demand
     Plant Loop Connector Nodes,   8,Mixer,SHWSYS1 DEMAND MIXER,ZN_1_FLR_1_SEC_3 PTAC HEAT COILDEMAND OUTLET NODE,SHWSYS1 DEMAND MIXER-SHWSYS1 DEMAND OUTLET PIPE,SHWSYS1,Demand
     Plant Loop Connector Branches,9,Mixer,SHWSYS1 DEMAND MIXER,SHWSYS1 DEMAND LOAD BRANCH 9,SHWSYS1 DEMAND OUTLET BRANCH,SHWSYS1,Demand
     Plant Loop Connector Nodes,   9,Mixer,SHWSYS1 DEMAND MIXER,ZN_1_FLR_1_SEC_4 PTAC HEAT COILDEMAND OUTLET NODE,SHWSYS1 DEMAND MIXER-SHWSYS1 DEMAND OUTLET PIPE,SHWSYS1,Demand
     Plant Loop Connector Branches,10,Mixer,SHWSYS1 DEMAND MIXER,SHWSYS1 DEMAND LOAD BRANCH 10,SHWSYS1 DEMAND OUTLET BRANCH,SHWSYS1,Demand
     Plant Loop Connector Nodes,   10,Mixer,SHWSYS1 DEMAND MIXER,ZN_1_FLR_1_SEC_5 PTAC HEAT COILDEMAND OUTLET NODE,SHWSYS1 DEMAND MIXER-SHWSYS1 DEMAND OUTLET PIPE,SHWSYS1,Demand
     Plant Loop Connector Branches,11,Mixer,SHWSYS1 DEMAND MIXER,SHWSYS1 DEMAND BYPASS BRANCH,SHWSYS1 DEMAND OUTLET BRANCH,SHWSYS1,Demand
     Plant Loop Connector Nodes,   11,Mixer,SHWSYS1 DEMAND MIXER,SHWSYS1 DEMAND BYPASS PIPE OUTLET NODE,SHWSYS1 DEMAND MIXER-SHWSYS1 DEMAND OUTLET PIPE,SHWSYS1,Demand
 Plant Loop,SHWSYS1,Supply,SHWSYS1 SUPPLY INLET NODE,SHWSYS1 SUPPLY OUTLET NODE,SHWSYS1 SUPPLY BRANCHES,SHWSYS1 SUPPLY CONNECTORS
   Plant Loop Connector,Splitter,SHWSYS1 SUPPLY SPLITTER,SHWSYS1,Supply,2
     Plant Loop Connector Branches,1,Splitter,SHWSYS1 SUPPLY SPLITTER,SHWSYS1 SUPPLY INLET BRANCH,SHWSYS1 SUPPLY EQUIPMENT BRANCH,SHWSYS1,Supply
     Plant Loop Connector Nodes,   1,Splitter,SHWSYS1 SUPPLY SPLITTER,SHWSYS1 WATER INLET NODEVIACONNECTOR,SHWSYS1 WATER INLET NODE,SHWSYS1,Supply
     Plant Loop Connector Branches,2,Splitter,SHWSYS1 SUPPLY SPLITTER,SHWSYS1 SUPPLY INLET BRANCH,SHWSYS1 SUPPLY EQUIPMENT BYPASS BRANCH,SHWSYS1,Supply
     Plant Loop Connector Nodes,   2,Splitter,SHWSYS1 SUPPLY SPLITTER,SHWSYS1 WATER INLET NODEVIACONNECTOR,SHWSYS1 SUPPLY EQUIP BYPASS INLET NODE,SHWSYS1,Supply
   Plant Loop Connector,Mixer,SHWSYS1 SUPPLY MIXER,SHWSYS1,Supply,2
     Plant Loop Connector Branches,1,Mixer,SHWSYS1 SUPPLY MIXER,SHWSYS1 SUPPLY EQUIPMENT BRANCH,SHWSYS1 SUPPLY OUTLET BRANCH,SHWSYS1,Supply
     Plant Loop Connector Nodes,   1,Mixer,SHWSYS1 SUPPLY MIXER,SHWSYS1 WATER OUTLET NODE,SHWSYS1 SUPPLY MIXER-SHWSYS1 SUPPLY OUTLET PIPE,SHWSYS1,Supply
     Plant Loop Connector Branches,2,Mixer,SHWSYS1 SUPPLY MIXER,SHWSYS1 SUPPLY EQUIPMENT BYPASS BRANCH,SHWSYS1 SUPPLY OUTLET BRANCH,SHWSYS1,Supply
     Plant Loop Connector Nodes,   2,Mixer,SHWSYS1 SUPPLY MIXER,SHWSYS1 SUPPLY EQUIP BYPASS OUTLET NODE,SHWSYS1 SUPPLY MIXER-SHWSYS1 SUPPLY OUTLET PIPE,SHWSYS1,Supply
 Plant Loop Supply Connection,SHWSYS1,SHWSYS1 SUPPLY OUTLET NODE,SHWSYS1 DEMAND INLET NODE
 Plant Loop Return Connection,SHWSYS1,SHWSYS1 DEMAND OUTLET NODE,SHWSYS1 SUPPLY INLET NODE
 Plant Loop,MICROCHP SENERTECH,Demand,MICROCHP SENERTECH DEMAND INLET NODE,MICROCHP SENERTECH DEMAND OUTLET NODE,MICROCHP SENERTECH DEMAND BRANCHES,MICROCHP SENERTECH DEMAND CONNECTORS
   Plant Loop Connector,Splitter,MICROCHP SENERTECH DEMAND SPLITTER,MICROCHP SENERTECH,Demand,2
     Plant Loop Connector Branches,1,Splitter,MICROCHP SENERTECH DEMAND SPLITTER,MICROCHP SENERTECH DEMAND INLET BRANCH,MICROCHP SENERTECH DEMAND LOAD BRANCH 1,MICROCHP SENERTECH,Demand
     Plant Loop Connector Nodes,   1,Splitter,MICROCHP SENERTECH DEMAND SPLITTER,MICROCHP SENERTECH DEMAND INLET PIPE-MICROCHP SENERTECH DEMAND MIXER,MICROCHP SENERTECH WATER INLET NODE,MICROCHP SENERTECH,Demand
     Plant Loop Connector Branches,2,Splitter,MICROCHP SENERTECH DEMAND SPLITTER,MICROCHP SENERTECH DEMAND INLET BRANCH,MICROCHP SENERTECH DEMAND BYPASS BRANCH,MICROCHP SENERTECH,Demand
     Plant Loop Connector Nodes,   2,Splitter,MICROCHP SENERTECH DEMAND SPLITTER,MICROCHP SENERTECH DEMAND INLET PIPE-MICROCHP SENERTECH DEMAND MIXER,MICROCHP SENERTECH DEMAND BYPASS PIPE INLET NODE,MICROCHP SENERTECH,Demand
   Plant Loop Connector,Mixer,MICROCHP SENERTECH DEMAND MIXER,MICROCHP SENERTECH,Demand,2
     Plant Loop Connector Branches,1,Mixer,MICROCHP SENERTECH DEMAND MIXER,MICROCHP SENERTECH DEMAND LOAD BRANCH 1,MICROCHP SENERTECH DEMAND OUTLET BRANCH,MICROCHP SENERTECH,Demand
     Plant Loop Connector Nodes,   1,Mixer,MICROCHP SENERTECH DEMAND MIXER,MICROCHP SENERTECH WATER OUTLET NODE,MICROCHP SENERTECH DEMAND MIXER-MICROCHP SENERTECH DEMAND OUTLET PIPE,MICROCHP SENERTECH,Demand
     Plant Loop Connector Branches,2,Mixer,MICROCHP SENERTECH DEMAND MIXER,MICROCHP SENERTECH DEMAND BYPASS BRANCH,MICROCHP SENERTECH DEMAND OUTLET BRANCH,MICROCHP SENERTECH,Demand
     Plant Loop Connector Nodes,   2,Mixer,MICROCHP SENERTECH DEMAND MIXER,MICROCHP SENERTECH DEMAND BYPASS PIPE OUTLET NODE,MICROCHP SENERTECH DEMAND MIXER-MICROCHP SENERTECH DEMAND OUTLET PIPE,MICROCHP SENERTECH,Demand
 Plant Loop,MICROCHP SENERTECH,Supply,MICROCHP SENERTECH SUPPLY INLET NODE,MICROCHP SENERTECH SUPPLY OUTLET NODE,MICROCHP SENERTECH SUPPLY BRANCHES,MICROCHP SENERTECH SUPPLY CONNECTORS
   Plant Loop Connector,Splitter,MICROCHP SENERTECH SUPPLY SPLITTER,MICROCHP SENERTECH,Supply,3
     Plant Loop Connector Branches,1,Splitter,MICROCHP SENERTECH SUPPLY SPLITTER,MICROCHP SENERTECH SUPPLY INLET BRANCH,MICROCHP SENERTECH SUPPLY EQUIPMENT BRANCH,MICROCHP SENERTECH,Supply
     Plant Loop Connector Nodes,   1,Splitter,MICROCHP SENERTECH SUPPLY SPLITTER,MICROCHP SENERTECH PUMP-MICROCOGEN1NODEVIACONNECTOR,MICROCHP SENERTECH PUMP-MICROCOGEN1NODE,MICROCHP SENERTECH,Supply
     Plant Loop Connector Branches,2,Splitter,MICROCHP SENERTECH SUPPLY SPLITTER,MICROCHP SENERTECH SUPPLY INLET BRANCH,SOFC SUPPLY EQUIPMENT BRANCH,MICROCHP SENERTECH,Supply
     Plant Loop Connector Nodes,   2,Splitter,MICROCHP SENERTECH SUPPLY SPLITTER,MICROCHP SENERTECH PUMP-MICROCOGEN1NODEVIACONNECTOR,SMALL SOFC HEAT REC INLET NODE,MICROCHP SENERTECH,Supply
     Plant Loop Connector Branches,3,Splitter,MICROCHP SENERTECH SUPPLY SPLITTER,MICROCHP SENERTECH SUPPLY INLET BRANCH,MICROCHP SENERTECH SUPPLY EQUIPMENT BYPASS BRANCH,MICROCHP SENERTECH,Supply
     Plant Loop Connector Nodes,   3,Splitter,MICROCHP SENERTECH SUPPLY SPLITTER,MICROCHP SENERTECH PUMP-MICROCOGEN1NODEVIACONNECTOR,MICROCHP SENERTECH SUPPLY EQUIP BYPASS INLET NODE,MICROCHP SENERTECH,Supply
   Plant Loop Connector,Mixer,MICROCHP SENERTECH SUPPLY MIXER,MICROCHP SENERTECH,Supply,3
     Plant Loop Connector Branches,1,Mixer,MICROCHP SENERTECH SUPPLY MIXER,MICROCHP SENERTECH SUPPLY EQUIPMENT BRANCH,MICROCHP SENERTECH SUPPLY OUTLET BRANCH,MICROCHP SENERTECH,Supply
     Plant Loop Connector Nodes,   1,Mixer,MICROCHP SENERTECH SUPPLY MIXER,MICROCHP SENERTECH SUPPLY EQUIPMENT OUTLET NODE,MICROCHP SENERTECH SUPPLY MIXER-MICROCHP SENERTECH SUPPLY OUTLET PIPE,MICROCHP SENERTECH,Supply
     Plant Loop Connector Branches,2,Mixer,MICROCHP SENERTECH SUPPLY MIXER,SOFC SUPPLY EQUIPMENT BRANCH,MICROCHP SENERTECH SUPPLY OUTLET BRANCH,MICROCHP SENERTECH,Supply
     Plant Loop Connector Nodes,   2,Mixer,MICROCHP SENERTECH SUPPLY MIXER,SMALL SOFC HEAT REC OUTLET NODE,MICROCHP SENERTECH SUPPLY MIXER-MICROCHP SENERTECH SUPPLY OUTLET PIPE,MICROCHP SENERTECH,Supply
     Plant Loop Connector Branches,3,Mixer,MICROCHP SENERTECH SUPPLY MIXER,MICROCHP SENERTECH SUPPLY EQUIPMENT BYPASS BRANCH,MICROCHP SENERTECH SUPPLY OUTLET BRANCH,MICROCHP SENERTECH,Supply
     Plant Loop Connector Nodes,   3,Mixer,MICROCHP SENERTECH SUPPLY MIXER,MICROCHP SENERTECH SUPPLY EQUIP BYPASS OUTLET NODE,MICROCHP SENERTECH SUPPLY MIXER-MICROCHP SENERTECH SUPPLY OUTLET PIPE,MICROCHP SENERTECH,Supply
 Plant Loop Supply Connection,MICROCHP SENERTECH,MICROCHP SENERTECH SUPPLY OUTLET NODE,MICROCHP SENERTECH DEMAND INLET NODE
 Plant Loop Return Connection,MICROCHP SENERTECH,MICROCHP SENERTECH DEMAND OUTLET NODE,MICROCHP SENERTECH SUPPLY INLET NODE
! ===============================================================
! <# Condenser Loops>,<Number of Condenser Loops>
 #Condenser Loops,0
! <Condenser Loop>,<Condenser Loop Name>,<Loop Type>,<Inlet Node Name>,<Outlet Node Name>,<Branch List>,<Connector List>
! <Condenser Loop Connector>,<Connector Type>,<Connector Name>,<Loop Name>,<Loop Type>,<Number of Inlets/Outlets>
! <Condenser Loop Connector Branches>,<Connector Node Count>,<Connector Type>,<Connector Name>,<Inlet Branch>,<Outlet Branch>,<Loop Name>,<Loop Type>
! <Condenser Loop Connector Nodes>,<Connector Node Count>,<Connector Type>,<Connector Name>,<Inlet Node>,<Outlet Node>,<Loop Name>,<Loop Type>
! <Condenser Loop Supply Connection>,<Condenser Loop Name>,<Supply Side Outlet Node Name>,<Demand Side Inlet Node Name>
! <Condenser Loop Return Connection>,<Condenser Loop Name>,<Demand Side Outlet Node Name>,<Supply Side Inlet Node Name>
! ===============================================================
! <# Controlled Zones>,<Number of Controlled Zones>
 #Controlled Zones,5
! <Controlled Zone>,<Controlled Zone Name>,<Equip List Name>,<Control List Name>,<Zone Node Name>,<# Inlet Nodes>,<# Exhaust Nodes>,<# Return Nodes>
! <Controlled Zone Inlet>,<Inlet Node Count>,<Controlled Zone Name>,<Supply Air Inlet Node Name>,<SD Sys:Cooling/Heating [DD:Cooling] Inlet Node Name>,<DD Sys:Heating Inlet Node Name>
! <Controlled Zone Exhaust>,<Exhaust Node Count>,<Controlled Zone Name>,<Exhaust Air Node Name>
 Controlled Zone,ZN_1_FLR_1_SEC_1,ZN_1_FLR_1_SEC_1 EQUIPMENT,,ZN_1_FLR_1_SEC_1 AIR NODE,1,2,1
   Controlled Zone Inlet,1,ZN_1_FLR_1_SEC_1,ZN_1_FLR_1_SEC_1 INLET NODE,Undefined,N/A
   Controlled Zone Exhaust,1,ZN_1_FLR_1_SEC_1,ZN_1_FLR_1_SEC_1 EXHAUST NODE
   Controlled Zone Exhaust,2,ZN_1_FLR_1_SEC_1,MICROCOGEN1 AIR INLET NODE
   Controlled Zone Return,1,ZN_1_FLR_1_SEC_1,ZN_1_FLR_1_SEC_1 RETURN AIR NODE
 Controlled Zone,ZN_1_FLR_1_SEC_2,ZN_1_FLR_1_SEC_2 EQUIPMENT,,ZN_1_FLR_1_SEC_2 AIR NODE,1,1,1
   Controlled Zone Inlet,1,ZN_1_FLR_1_SEC_2,ZN_1_FLR_1_SEC_2 INLET NODE,Undefined,N/A
   Controlled Zone Exhaust,1,ZN_1_FLR_1_SEC_2,ZN_1_FLR_1_SEC_2 EXHAUST NODE
   Controlled Zone Return,1,ZN_1_FLR_1_SEC_2,ZN_1_FLR_1_SEC_2 RETURN AIR NODE
 Controlled Zone,ZN_1_FLR_1_SEC_3,ZN_1_FLR_1_SEC_3 EQUIPMENT,,ZN_1_FLR_1_SEC_3 AIR NODE,1,1,1
   Controlled Zone Inlet,1,ZN_1_FLR_1_SEC_3,ZN_1_FLR_1_SEC_3 INLET NODE,Undefined,N/A
   Controlled Zone Exhaust,1,ZN_1_FLR_1_SEC_3,ZN_1_FLR_1_SEC_3 EXHAUST NODE
   Controlled Zone Return,1,ZN_1_FLR_1_SEC_3,ZN_1_FLR_1_SEC_3 RETURN AIR NODE
 Controlled Zone,ZN_1_FLR_1_SEC_4,ZN_1_FLR_1_SEC_4 EQUIPMENT,,ZN_1_FLR_1_SEC_4 AIR NODE,1,1,1
   Controlled Zone Inlet,1,ZN_1_FLR_1_SEC_4,ZN_1_FLR_1_SEC_4 INLET NODE,Undefined,N/A
   Controlled Zone Exhaust,1,ZN_1_FLR_1_SEC_4,ZN_1_FLR_1_SEC_4 EXHAUST NODE
   Controlled Zone Return,1,ZN_1_FLR_1_SEC_4,ZN_1_FLR_1_SEC_4 RETURN AIR NODE
 Controlled Zone,ZN_1_FLR_1_SEC_5,ZN_1_FLR_1_SEC_5 EQUIPMENT,,ZN_1_FLR_1_SEC_5 AIR NODE,1,3,1
   Controlled Zone Inlet,1,ZN_1_FLR_1_SEC_5,ZN_1_FLR_1_SEC_5 INLET NODE,Undefined,N/A
   Controlled Zone Exhaust,1,ZN_1_FLR_1_SEC_5,ZN_1_FLR_1_SEC_5 EXHAUST NODE
   Controlled Zone Exhaust,2,ZN_1_FLR_1_SEC_5,SOFC AIR INLET NODE
   Controlled Zone Exhaust,3,ZN_1_FLR_1_SEC_5,SOFC AIR HR INLET
   Controlled Zone Return,1,ZN_1_FLR_1_SEC_5,ZN_1_FLR_1_SEC_5 RETURN AIR NODE
! ===============================================================
! <#Zone Equipment Lists>,<Number of Zone Equipment Lists>
 #Zone Equipment Lists,5
! <Zone Equipment List>,<Zone Equipment List Count>,<Zone Equipment List Name>,<Zone Name>,<Number of Components>
! <Zone Equipment Component>,<Component Count>,<Component Type>,<Component Name>,<Zone Name>,<Heating Priority>,<Cooling Priority>
 Zone Equipment List,1,ZN_1_FLR_1_SEC_1 EQUIPMENT,ZN_1_FLR_1_SEC_1,1
   Zone Equipment Component,1,ZONEHVAC:PACKAGEDTERMINALAIRCONDITIONER,ZN_1_FLR_1_SEC_1 PTAC,ZN_1_FLR_1_SEC_1,1,1
 Zone Equipment List,2,ZN_1_FLR_1_SEC_2 EQUIPMENT,ZN_1_FLR_1_SEC_2,1
   Zone Equipment Component,1,ZONEHVAC:PACKAGEDTERMINALAIRCONDITIONER,ZN_1_FLR_1_SEC_2 PTAC,ZN_1_FLR_1_SEC_2,1,1
 Zone Equipment List,3,ZN_1_FLR_1_SEC_3 EQUIPMENT,ZN_1_FLR_1_SEC_3,1
   Zone Equipment Component,1,ZONEHVAC:PACKAGEDTERMINALAIRCONDITIONER,ZN_1_FLR_1_SEC_3 PTAC,ZN_1_FLR_1_SEC_3,1,1
 Zone Equipment List,4,ZN_1_FLR_1_SEC_4 EQUIPMENT,ZN_1_FLR_1_SEC_4,1
   Zone Equipment Component,1,ZONEHVAC:PACKAGEDTERMINALAIRCONDITIONER,ZN_1_FLR_1_SEC_4 PTAC,ZN_1_FLR_1_SEC_4,1,1
 Zone Equipment List,5,ZN_1_FLR_1_SEC_5 EQUIPMENT,ZN_1_FLR_1_SEC_5,1
   Zone Equipment Component,1,ZONEHVAC:PACKAGEDTERMINALAIRCONDITIONER,ZN_1_FLR_1_SEC_5 PTAC,ZN_1_FLR_1_SEC_5,1,1
! ===============================================================
! <#AirLoopHVACs>,<Number of AirLoopHVACs>
 #AirLoopHVACs,0
! <AirLoopHVAC>,<Air Loop Name>,<# Return Nodes>,<# Supply Nodes>,<# Zones Cooled>,<# Zones Heated>,<Outdoor Air Used>
! <AirLoop Return Connections>,<Connection Count>,<AirLoopHVAC Name>,<Zn Eqp Return Node #>,<Zn Eqp Return Node Name>,<AirLoop Return Node #>,<Air Loop Return Node Name>
! <AirLoop Supply Connections>,<Connection Count>,<AirLoopHVAC Name>,<Zn Eqp Supply Node #>,<Zn Eqp Supply Node Name>,<AirLoop Supply Node #>,<Air Loop Supply Node Name>
! <Cooled Zone Info>,<Cooled Zone Count>,<Cooled Zone Name>,<Cooled Zone Inlet Node #>,<Cooled Zone Inlet Node Name>,<AirLoopHVAC Name>
! <Heated Zone Info>,<Heated Zone Count>,<Heated Zone Name>,<Heated Zone Inlet Node #>,<Heated Zone Inlet Node Name>,<AirLoopHVAC Name>
! <Outdoor Air Connections>,<OA Inlet Node #>,<OA Return Air Inlet Node Name>,<OA Outlet Node #>,<OA Mixed Air Outlet Node Name>,<AirLoopHVAC Name>
! <AirLoopHVAC Connector>,<Connector Type>,<Connector Name>,<Loop Name>,<Loop Type>,<Number of Inlets/Outlets>
! <AirLoopHVAC Connector Branches>,<Connector Node Count>,<Connector Type>,<Connector Name>,<Inlet Branch>,<Outlet Branch>,<Loop Name>,<Loop Type>
! <AirLoopHVAC Connector Nodes>,<Connector Node Count>,<Connector Type>,<Connector Name>,<Inlet Node>,<Outlet Node>,<Loop Name>,<Loop Type>
! ===============================================================
! <#Parent Node Connections>,<Number of Parent Node Connections>
 #Parent Node Connections,77
! <Parent Node Connection>,<Node Name>,<Node ObjectType>,<Node ObjectName>,<Node ConnectionType>,<Node FluidStream>
 Parent Node Connection,SHWSYS1 SUPPLY INLET NODE,BRANCH,SHWSYS1 SUPPLY INLET BRANCH,Inlet,1
 Parent Node Connection,SHWSYS1 WATER INLET NODEVIACONNECTOR,BRANCH,SHWSYS1 SUPPLY INLET BRANCH,Outlet,1
 Parent Node Connection,SHWSYS1 WATER INLET NODE,BRANCH,SHWSYS1 SUPPLY EQUIPMENT BRANCH,Inlet,1
 Parent Node Connection,SHWSYS1 WATER OUTLET NODE,BRANCH,SHWSYS1 SUPPLY EQUIPMENT BRANCH,Outlet,1
 Parent Node Connection,SHWSYS1 SUPPLY EQUIP BYPASS INLET NODE,BRANCH,SHWSYS1 SUPPLY EQUIPMENT BYPASS BRANCH,Inlet,1
 Parent Node Connection,SHWSYS1 SUPPLY EQUIP BYPASS OUTLET NODE,BRANCH,SHWSYS1 SUPPLY EQUIPMENT BYPASS BRANCH,Outlet,1
 Parent Node Connection,SHWSYS1 SUPPLY MIXER-SHWSYS1 SUPPLY OUTLET PIPE,BRANCH,SHWSYS1 SUPPLY OUTLET BRANCH,Inlet,1
 Parent Node Connection,SHWSYS1 SUPPLY OUTLET NODE,BRANCH,SHWSYS1 SUPPLY OUTLET BRANCH,Outlet,1
 Parent Node Connection,SHWSYS1 DEMAND INLET NODE,BRANCH,SHWSYS1 DEMAND INLET BRANCH,Inlet,1
 Parent Node Connection,SHWSYS1 DEMAND INLET PIPE-SHWSYS1 DEMAND MIXER,BRANCH,SHWSYS1 DEMAND INLET BRANCH,Outlet,1
 Parent Node Connection,ZN_1_FLR_1_SEC_1SHW_DEFAULT WATER INLET NODE,BRANCH,SHWSYS1 DEMAND LOAD BRANCH 1,Inlet,1
 Parent Node Connection,ZN_1_FLR_1_SEC_1SHW_DEFAULT WATER OUTLET NODE,BRANCH,SHWSYS1 DEMAND LOAD BRANCH 1,Outlet,1
 Parent Node Connection,ZN_1_FLR_1_SEC_2SHW_DEFAULT WATER INLET NODE,BRANCH,SHWSYS1 DEMAND LOAD BRANCH 2,Inlet,1
 Parent Node Connection,ZN_1_FLR_1_SEC_2SHW_DEFAULT WATER OUTLET NODE,BRANCH,SHWSYS1 DEMAND LOAD BRANCH 2,Outlet,1
 Parent Node Connection,ZN_1_FLR_1_SEC_3SHW_DEFAULT WATER INLET NODE,BRANCH,SHWSYS1 DEMAND LOAD BRANCH 3,Inlet,1
 Parent Node Connection,ZN_1_FLR_1_SEC_3SHW_DEFAULT WATER OUTLET NODE,BRANCH,SHWSYS1 DEMAND LOAD BRANCH 3,Outlet,1
 Parent Node Connection,ZN_1_FLR_1_SEC_4SHW_DEFAULT WATER INLET NODE,BRANCH,SHWSYS1 DEMAND LOAD BRANCH 4,Inlet,1
 Parent Node Connection,ZN_1_FLR_1_SEC_4SHW_DEFAULT WATER OUTLET NODE,BRANCH,SHWSYS1 DEMAND LOAD BRANCH 4,Outlet,1
 Parent Node Connection,ZN_1_FLR_1_SEC_5SHW_DEFAULT WATER INLET NODE,BRANCH,SHWSYS1 DEMAND LOAD BRANCH 5,Inlet,1
 Parent Node Connection,ZN_1_FLR_1_SEC_5SHW_DEFAULT WATER OUTLET NODE,BRANCH,SHWSYS1 DEMAND LOAD BRANCH 5,Outlet,1
 Parent Node Connection,ZN_1_FLR_1_SEC_1 PTAC HEAT COILDEMAND INLET NODE,BRANCH,SHWSYS1 DEMAND LOAD BRANCH 6,Inlet,1
 Parent Node Connection,ZN_1_FLR_1_SEC_1 PTAC HEAT COILDEMAND OUTLET NODE,BRANCH,SHWSYS1 DEMAND LOAD BRANCH 6,Outlet,1
 Parent Node Connection,ZN_1_FLR_1_SEC_2 PTAC HEAT COILDEMAND INLET NODE,BRANCH,SHWSYS1 DEMAND LOAD BRANCH 7,Inlet,1
 Parent Node Connection,ZN_1_FLR_1_SEC_2 PTAC HEAT COILDEMAND OUTLET NODE,BRANCH,SHWSYS1 DEMAND LOAD BRANCH 7,Outlet,1
 Parent Node Connection,ZN_1_FLR_1_SEC_3 PTAC HEAT COILDEMAND INLET NODE,BRANCH,SHWSYS1 DEMAND LOAD BRANCH 8,Inlet,1
 Parent Node Connection,ZN_1_FLR_1_SEC_3 PTAC HEAT COILDEMAND OUTLET NODE,BRANCH,SHWSYS1 DEMAND LOAD BRANCH 8,Outlet,1
 Parent Node Connection,ZN_1_FLR_1_SEC_4 PTAC HEAT COILDEMAND INLET NODE,BRANCH,SHWSYS1 DEMAND LOAD BRANCH 9,Inlet,1
 Parent Node Connection,ZN_1_FLR_1_SEC_4 PTAC HEAT COILDEMAND OUTLET NODE,BRANCH,SHWSYS1 DEMAND LOAD BRANCH 9,Outlet,1
 Parent Node Connection,ZN_1_FLR_1_SEC_5 PTAC HEAT COILDEMAND INLET NODE,BRANCH,SHWSYS1 DEMAND LOAD BRANCH 10,Inlet,1
 Parent Node Connection,ZN_1_FLR_1_SEC_5 PTAC HEAT COILDEMAND OUTLET NODE,BRANCH,SHWSYS1 DEMAND LOAD BRANCH 10,Outlet,1
 Parent Node Connection,SHWSYS1 DEMAND BYPASS PIPE INLET NODE,BRANCH,SHWSYS1 DEMAND BYPASS BRANCH,Inlet,1
 Parent Node Connection,SHWSYS1 DEMAND BYPASS PIPE OUTLET NODE,BRANCH,SHWSYS1 DEMAND BYPASS BRANCH,Outlet,1
 Parent Node Connection,SHWSYS1 DEMAND MIXER-SHWSYS1 DEMAND OUTLET PIPE,BRANCH,SHWSYS1 DEMAND OUTLET BRANCH,Inlet,1
 Parent Node Connection,SHWSYS1 DEMAND OUTLET NODE,BRANCH,SHWSYS1 DEMAND OUTLET BRANCH,Outlet,1
 Parent Node Connection,MICROCHP SENERTECH SUPPLY INLET NODE,BRANCH,MICROCHP SENERTECH SUPPLY INLET BRANCH,Inlet,1
 Parent Node Connection,MICROCHP SENERTECH PUMP-MICROCOGEN1NODEVIACONNECTOR,BRANCH,MICROCHP SENERTECH SUPPLY INLET BRANCH,Outlet,1
 Parent Node Connection,MICROCHP SENERTECH PUMP-MICROCOGEN1NODE,BRANCH,MICROCHP SENERTECH SUPPLY EQUIPMENT BRANCH,Inlet,1
 Parent Node Connection,MICROCHP SENERTECH SUPPLY EQUIPMENT OUTLET NODE,BRANCH,MICROCHP SENERTECH SUPPLY EQUIPMENT BRANCH,Outlet,1
 Parent Node Connection,SMALL SOFC HEAT REC INLET NODE,BRANCH,SOFC SUPPLY EQUIPMENT BRANCH,Inlet,1
 Parent Node Connection,SMALL SOFC HEAT REC OUTLET NODE,BRANCH,SOFC SUPPLY EQUIPMENT BRANCH,Outlet,1
 Parent Node Connection,MICROCHP SENERTECH SUPPLY EQUIP BYPASS INLET NODE,BRANCH,MICROCHP SENERTECH SUPPLY EQUIPMENT BYPASS BRANCH,Inlet,1
 Parent Node Connection,MICROCHP SENERTECH SUPPLY EQUIP BYPASS OUTLET NODE,BRANCH,MICROCHP SENERTECH SUPPLY EQUIPMENT BYPASS BRANCH,Outlet,1
 Parent Node Connection,MICROCHP SENERTECH SUPPLY MIXER-MICROCHP SENERTECH SUPPLY OUTLET PIPE,BRANCH,MICROCHP SENERTECH SUPPLY OUTLET BRANCH,Inlet,1
 Parent Node Connection,MICROCHP SENERTECH SUPPLY OUTLET NODE,BRANCH,MICROCHP SENERTECH SUPPLY OUTLET BRANCH,Outlet,1
 Parent Node Connection,MICROCHP SENERTECH DEMAND INLET NODE,BRANCH,MICROCHP SENERTECH DEMAND INLET BRANCH,Inlet,1
 Parent Node Connection,MICROCHP SENERTECH DEMAND INLET PIPE-MICROCHP SENERTECH DEMAND MIXER,BRANCH,MICROCHP SENERTECH DEMAND INLET BRANCH,Outlet,1
 Parent Node Connection,MICROCHP SENERTECH WATER INLET NODE,BRANCH,MICROCHP SENERTECH DEMAND LOAD BRANCH 1,Inlet,1
 Parent Node Connection,MICROCHP SENERTECH WATER OUTLET NODE,BRANCH,MICROCHP SENERTECH DEMAND LOAD BRANCH 1,Outlet,1
 Parent Node Connection,MICROCHP SENERTECH DEMAND BYPASS PIPE INLET NODE,BRANCH,MICROCHP SENERTECH DEMAND BYPASS BRANCH,Inlet,1
 Parent Node Connection,MICROCHP SENERTECH DEMAND BYPASS PIPE OUTLET NODE,BRANCH,MICROCHP SENERTECH DEMAND BYPASS BRANCH,Outlet,1
 Parent Node Connection,MICROCHP SENERTECH DEMAND MIXER-MICROCHP SENERTECH DEMAND OUTLET PIPE,BRANCH,MICROCHP SENERTECH DEMAND OUTLET BRANCH,Inlet,1
 Parent Node Connection,MICROCHP SENERTECH DEMAND OUTLET NODE,BRANCH,MICROCHP SENERTECH DEMAND OUTLET BRANCH,Outlet,1
 Parent Node Connection,SHWSYS1 SUPPLY INLET NODE,PLANTLOOP,SHWSYS1,Inlet,1
 Parent Node Connection,SHWSYS1 SUPPLY OUTLET NODE,PLANTLOOP,SHWSYS1,Outlet,1
 Parent Node Connection,SHWSYS1 DEMAND INLET NODE,PLANTLOOP,SHWSYS1,Inlet,1
 Parent Node Connection,SHWSYS1 DEMAND OUTLET NODE,PLANTLOOP,SHWSYS1,Outlet,1
 Parent Node Connection,SHWSYS1 SUPPLY OUTLET NODE,PLANTLOOP,SHWSYS1,Sensor,1
 Parent Node Connection,MICROCHP SENERTECH SUPPLY INLET NODE,PLANTLOOP,MICROCHP SENERTECH,Inlet,1
 Parent Node Connection,MICROCHP SENERTECH SUPPLY OUTLET NODE,PLANTLOOP,MICROCHP SENERTECH,Outlet,1
 Parent Node Connection,MICROCHP SENERTECH DEMAND INLET NODE,PLANTLOOP,MICROCHP SENERTECH,Inlet,1
 Parent Node Connection,MICROCHP SENERTECH DEMAND OUTLET NODE,PLANTLOOP,MICROCHP SENERTECH,Outlet,1
 Parent Node Connection,MICROCHP SENERTECH SUPPLY OUTLET NODE,PLANTLOOP,MICROCHP SENERTECH,Sensor,1
 Parent Node Connection,ZN_1_FLR_1_SEC_1 EXHAUST NODE,ZONEHVAC:PACKAGEDTERMINALAIRCONDITIONER,ZN_1_FLR_1_SEC_1 PTAC,Inlet,1
 Parent Node Connection,ZN_1_FLR_1_SEC_1 INLET NODE,ZONEHVAC:PACKAGEDTERMINALAIRCONDITIONER,ZN_1_FLR_1_SEC_1 PTAC,Outlet,1
 Parent Node Connection,ZN_1_FLR_1_SEC_1 PTAC HEAT COILDEMAND INLET NODE,ZONEHVAC:PACKAGEDTERMINALAIRCONDITIONER,ZN_1_FLR_1_SEC_1 PTAC,Actuator,1
 Parent Node Connection,ZN_1_FLR_1_SEC_2 EXHAUST NODE,ZONEHVAC:PACKAGEDTERMINALAIRCONDITIONER,ZN_1_FLR_1_SEC_2 PTAC,Inlet,1
 Parent Node Connection,ZN_1_FLR_1_SEC_2 INLET NODE,ZONEHVAC:PACKAGEDTERMINALAIRCONDITIONER,ZN_1_FLR_1_SEC_2 PTAC,Outlet,1
 Parent Node Connection,ZN_1_FLR_1_SEC_2 PTAC HEAT COILDEMAND INLET NODE,ZONEHVAC:PACKAGEDTERMINALAIRCONDITIONER,ZN_1_FLR_1_SEC_2 PTAC,Actuator,1
 Parent Node Connection,ZN_1_FLR_1_SEC_3 EXHAUST NODE,ZONEHVAC:PACKAGEDTERMINALAIRCONDITIONER,ZN_1_FLR_1_SEC_3 PTAC,Inlet,1
 Parent Node Connection,ZN_1_FLR_1_SEC_3 INLET NODE,ZONEHVAC:PACKAGEDTERMINALAIRCONDITIONER,ZN_1_FLR_1_SEC_3 PTAC,Outlet,1
 Parent Node Connection,ZN_1_FLR_1_SEC_3 PTAC HEAT COILDEMAND INLET NODE,ZONEHVAC:PACKAGEDTERMINALAIRCONDITIONER,ZN_1_FLR_1_SEC_3 PTAC,Actuator,1
 Parent Node Connection,ZN_1_FLR_1_SEC_4 EXHAUST NODE,ZONEHVAC:PACKAGEDTERMINALAIRCONDITIONER,ZN_1_FLR_1_SEC_4 PTAC,Inlet,1
 Parent Node Connection,ZN_1_FLR_1_SEC_4 INLET NODE,ZONEHVAC:PACKAGEDTERMINALAIRCONDITIONER,ZN_1_FLR_1_SEC_4 PTAC,Outlet,1
 Parent Node Connection,ZN_1_FLR_1_SEC_4 PTAC HEAT COILDEMAND INLET NODE,ZONEHVAC:PACKAGEDTERMINALAIRCONDITIONER,ZN_1_FLR_1_SEC_4 PTAC,Actuator,1
 Parent Node Connection,ZN_1_FLR_1_SEC_5 EXHAUST NODE,ZONEHVAC:PACKAGEDTERMINALAIRCONDITIONER,ZN_1_FLR_1_SEC_5 PTAC,Inlet,1
 Parent Node Connection,ZN_1_FLR_1_SEC_5 INLET NODE,ZONEHVAC:PACKAGEDTERMINALAIRCONDITIONER,ZN_1_FLR_1_SEC_5 PTAC,Outlet,1
 Parent Node Connection,ZN_1_FLR_1_SEC_5 PTAC HEAT COILDEMAND INLET NODE,ZONEHVAC:PACKAGEDTERMINALAIRCONDITIONER,ZN_1_FLR_1_SEC_5 PTAC,Actuator,1
! ===============================================================
! <#Non-Parent Node Connections>,<Number of Non-Parent Node Connections>
 #Non-Parent Node Connections,184
! <Non-Parent Node Connection>,<Node Name>,<Node ObjectType>,<Node ObjectName>,<Node ConnectionType>,<Node FluidStream>
 Non-Parent Node Connection,ZN_1_FLR_1_SEC_1 AIR NODE,ZONEHVAC:EQUIPMENTCONNECTIONS,ZN_1_FLR_1_SEC_1,ZoneNode,1
 Non-Parent Node Connection,ZN_1_FLR_1_SEC_1 INLET NODE,ZONEHVAC:EQUIPMENTCONNECTIONS,ZN_1_FLR_1_SEC_1,ZoneInlet,1
 Non-Parent Node Connection,ZN_1_FLR_1_SEC_1 EXHAUST NODE,ZONEHVAC:EQUIPMENTCONNECTIONS,ZN_1_FLR_1_SEC_1,ZoneExhaust,1
 Non-Parent Node Connection,MICROCOGEN1 AIR INLET NODE,ZONEHVAC:EQUIPMENTCONNECTIONS,ZN_1_FLR_1_SEC_1,ZoneExhaust,1
 Non-Parent Node Connection,ZN_1_FLR_1_SEC_1 RETURN AIR NODE,ZONEHVAC:EQUIPMENTCONNECTIONS,ZN_1_FLR_1_SEC_1,ZoneReturn,1
 Non-Parent Node Connection,ZN_1_FLR_1_SEC_2 AIR NODE,ZONEHVAC:EQUIPMENTCONNECTIONS,ZN_1_FLR_1_SEC_2,ZoneNode,1
 Non-Parent Node Connection,ZN_1_FLR_1_SEC_2 INLET NODE,ZONEHVAC:EQUIPMENTCONNECTIONS,ZN_1_FLR_1_SEC_2,ZoneInlet,1
 Non-Parent Node Connection,ZN_1_FLR_1_SEC_2 EXHAUST NODE,ZONEHVAC:EQUIPMENTCONNECTIONS,ZN_1_FLR_1_SEC_2,ZoneExhaust,1
 Non-Parent Node Connection,ZN_1_FLR_1_SEC_2 RETURN AIR NODE,ZONEHVAC:EQUIPMENTCONNECTIONS,ZN_1_FLR_1_SEC_2,ZoneReturn,1
 Non-Parent Node Connection,ZN_1_FLR_1_SEC_3 AIR NODE,ZONEHVAC:EQUIPMENTCONNECTIONS,ZN_1_FLR_1_SEC_3,ZoneNode,1
 Non-Parent Node Connection,ZN_1_FLR_1_SEC_3 INLET NODE,ZONEHVAC:EQUIPMENTCONNECTIONS,ZN_1_FLR_1_SEC_3,ZoneInlet,1
 Non-Parent Node Connection,ZN_1_FLR_1_SEC_3 EXHAUST NODE,ZONEHVAC:EQUIPMENTCONNECTIONS,ZN_1_FLR_1_SEC_3,ZoneExhaust,1
 Non-Parent Node Connection,ZN_1_FLR_1_SEC_3 RETURN AIR NODE,ZONEHVAC:EQUIPMENTCONNECTIONS,ZN_1_FLR_1_SEC_3,ZoneReturn,1
 Non-Parent Node Connection,ZN_1_FLR_1_SEC_4 AIR NODE,ZONEHVAC:EQUIPMENTCONNECTIONS,ZN_1_FLR_1_SEC_4,ZoneNode,1
 Non-Parent Node Connection,ZN_1_FLR_1_SEC_4 INLET NODE,ZONEHVAC:EQUIPMENTCONNECTIONS,ZN_1_FLR_1_SEC_4,ZoneInlet,1
 Non-Parent Node Connection,ZN_1_FLR_1_SEC_4 EXHAUST NODE,ZONEHVAC:EQUIPMENTCONNECTIONS,ZN_1_FLR_1_SEC_4,ZoneExhaust,1
 Non-Parent Node Connection,ZN_1_FLR_1_SEC_4 RETURN AIR NODE,ZONEHVAC:EQUIPMENTCONNECTIONS,ZN_1_FLR_1_SEC_4,ZoneReturn,1
 Non-Parent Node Connection,ZN_1_FLR_1_SEC_5 AIR NODE,ZONEHVAC:EQUIPMENTCONNECTIONS,ZN_1_FLR_1_SEC_5,ZoneNode,1
 Non-Parent Node Connection,ZN_1_FLR_1_SEC_5 INLET NODE,ZONEHVAC:EQUIPMENTCONNECTIONS,ZN_1_FLR_1_SEC_5,ZoneInlet,1
 Non-Parent Node Connection,ZN_1_FLR_1_SEC_5 EXHAUST NODE,ZONEHVAC:EQUIPMENTCONNECTIONS,ZN_1_FLR_1_SEC_5,ZoneExhaust,1
 Non-Parent Node Connection,SOFC AIR INLET NODE,ZONEHVAC:EQUIPMENTCONNECTIONS,ZN_1_FLR_1_SEC_5,ZoneExhaust,1
 Non-Parent Node Connection,SOFC AIR HR INLET,ZONEHVAC:EQUIPMENTCONNECTIONS,ZN_1_FLR_1_SEC_5,ZoneExhaust,1
 Non-Parent Node Connection,ZN_1_FLR_1_SEC_5 RETURN AIR NODE,ZONEHVAC:EQUIPMENTCONNECTIONS,ZN_1_FLR_1_SEC_5,ZoneReturn,1
 Non-Parent Node Connection,SHWSYS1 WATER INLET NODE,WATERHEATER:STRATIFIED,SHWSYS1 WATER HEATER,Inlet,1
 Non-Parent Node Connection,SHWSYS1 WATER OUTLET NODE,WATERHEATER:STRATIFIED,SHWSYS1 WATER HEATER,Outlet,1
 Non-Parent Node Connection,MICROCHP SENERTECH WATER INLET NODE,WATERHEATER:STRATIFIED,SHWSYS1 WATER HEATER,Inlet,2
 Non-Parent Node Connection,MICROCHP SENERTECH WATER OUTLET NODE,WATERHEATER:STRATIFIED,SHWSYS1 WATER HEATER,Outlet,2
 Non-Parent Node Connection,ZN_1_FLR_1_SEC_1 PTAC OA NODE,OUTDOORAIR:NODE,OutdoorAir:Node,OutdoorAir,1
 Non-Parent Node Connection,ZN_1_FLR_1_SEC_2 PTAC OA NODE,OUTDOORAIR:NODE,OutdoorAir:Node,OutdoorAir,2
 Non-Parent Node Connection,ZN_1_FLR_1_SEC_3 PTAC OA NODE,OUTDOORAIR:NODE,OutdoorAir:Node,OutdoorAir,3
 Non-Parent Node Connection,ZN_1_FLR_1_SEC_4 PTAC OA NODE,OUTDOORAIR:NODE,OutdoorAir:Node,OutdoorAir,4
 Non-Parent Node Connection,ZN_1_FLR_1_SEC_5 PTAC OA NODE,OUTDOORAIR:NODE,OutdoorAir:Node,OutdoorAir,5
 Non-Parent Node Connection,SHWSYS1 SUPPLY OUTLET NODE,SETPOINTMANAGER:SCHEDULED,SHWSYS1 LOOP SETPOINT MANAGER,Setpoint,1
 Non-Parent Node Connection,MICROCHP SENERTECH SUPPLY OUTLET NODE,SETPOINTMANAGER:SCHEDULED,MICROCHP SENERTECH LOOP SETPOINT MANAGER,Setpoint,1
 Non-Parent Node Connection,SHWSYS1 SUPPLY EQUIP BYPASS INLET NODE,PIPE:ADIABATIC,SHWSYS1 SUPPLY EQUIPMENT BYPASS PIPE,Inlet,1
 Non-Parent Node Connection,SHWSYS1 SUPPLY EQUIP BYPASS OUTLET NODE,PIPE:ADIABATIC,SHWSYS1 SUPPLY EQUIPMENT BYPASS PIPE,Outlet,1
 Non-Parent Node Connection,SHWSYS1 SUPPLY MIXER-SHWSYS1 SUPPLY OUTLET PIPE,PIPE:ADIABATIC,SHWSYS1 SUPPLY OUTLET PIPE,Inlet,1
 Non-Parent Node Connection,SHWSYS1 SUPPLY OUTLET NODE,PIPE:ADIABATIC,SHWSYS1 SUPPLY OUTLET PIPE,Outlet,1
 Non-Parent Node Connection,SHWSYS1 DEMAND INLET NODE,PIPE:ADIABATIC,SHWSYS1 DEMAND INLET PIPE,Inlet,1
 Non-Parent Node Connection,SHWSYS1 DEMAND INLET PIPE-SHWSYS1 DEMAND MIXER,PIPE:ADIABATIC,SHWSYS1 DEMAND INLET PIPE,Outlet,1
 Non-Parent Node Connection,SHWSYS1 DEMAND BYPASS PIPE INLET NODE,PIPE:ADIABATIC,SHWSYS1 DEMAND BYPASS PIPE,Inlet,1
 Non-Parent Node Connection,SHWSYS1 DEMAND BYPASS PIPE OUTLET NODE,PIPE:ADIABATIC,SHWSYS1 DEMAND BYPASS PIPE,Outlet,1
 Non-Parent Node Connection,SHWSYS1 DEMAND MIXER-SHWSYS1 DEMAND OUTLET PIPE,PIPE:ADIABATIC,SHWSYS1 DEMAND OUTLET PIPE,Inlet,1
 Non-Parent Node Connection,SHWSYS1 DEMAND OUTLET NODE,PIPE:ADIABATIC,SHWSYS1 DEMAND OUTLET PIPE,Outlet,1
 Non-Parent Node Connection,MICROCHP SENERTECH SUPPLY EQUIP BYPASS INLET NODE,PIPE:ADIABATIC,MICROCHP SENERTECH SUPPLY EQUIPMENT BYPASS PIPE,Inlet,1
 Non-Parent Node Connection,MICROCHP SENERTECH SUPPLY EQUIP BYPASS OUTLET NODE,PIPE:ADIABATIC,MICROCHP SENERTECH SUPPLY EQUIPMENT BYPASS PIPE,Outlet,1
 Non-Parent Node Connection,MICROCHP SENERTECH SUPPLY MIXER-MICROCHP SENERTECH SUPPLY OUTLET PIPE,PIPE:ADIABATIC,MICROCHP SENERTECH SUPPLY OUTLET PIPE,Inlet,1
 Non-Parent Node Connection,MICROCHP SENERTECH SUPPLY OUTLET NODE,PIPE:ADIABATIC,MICROCHP SENERTECH SUPPLY OUTLET PIPE,Outlet,1
 Non-Parent Node Connection,MICROCHP SENERTECH DEMAND INLET NODE,PIPE:ADIABATIC,MICROCHP SENERTECH DEMAND INLET PIPE,Inlet,1
 Non-Parent Node Connection,MICROCHP SENERTECH DEMAND INLET PIPE-MICROCHP SENERTECH DEMAND MIXER,PIPE:ADIABATIC,MICROCHP SENERTECH DEMAND INLET PIPE,Outlet,1
 Non-Parent Node Connection,MICROCHP SENERTECH DEMAND BYPASS PIPE INLET NODE,PIPE:ADIABATIC,MICROCHP SENERTECH DEMAND BYPASS PIPE,Inlet,1
 Non-Parent Node Connection,MICROCHP SENERTECH DEMAND BYPASS PIPE OUTLET NODE,PIPE:ADIABATIC,MICROCHP SENERTECH DEMAND BYPASS PIPE,Outlet,1
 Non-Parent Node Connection,MICROCHP SENERTECH DEMAND MIXER-MICROCHP SENERTECH DEMAND OUTLET PIPE,PIPE:ADIABATIC,MICROCHP SENERTECH DEMAND OUTLET PIPE,Inlet,1
 Non-Parent Node Connection,MICROCHP SENERTECH DEMAND OUTLET NODE,PIPE:ADIABATIC,MICROCHP SENERTECH DEMAND OUTLET PIPE,Outlet,1
 Non-Parent Node Connection,SHWSYS1 DEMAND INLET PIPE-SHWSYS1 DEMAND MIXER,CONNECTOR:SPLITTER,SHWSYS1 DEMAND SPLITTER,Inlet,1
 Non-Parent Node Connection,ZN_1_FLR_1_SEC_1SHW_DEFAULT WATER INLET NODE,CONNECTOR:SPLITTER,SHWSYS1 DEMAND SPLITTER,Outlet,1
 Non-Parent Node Connection,ZN_1_FLR_1_SEC_2SHW_DEFAULT WATER INLET NODE,CONNECTOR:SPLITTER,SHWSYS1 DEMAND SPLITTER,Outlet,1
 Non-Parent Node Connection,ZN_1_FLR_1_SEC_3SHW_DEFAULT WATER INLET NODE,CONNECTOR:SPLITTER,SHWSYS1 DEMAND SPLITTER,Outlet,1
 Non-Parent Node Connection,ZN_1_FLR_1_SEC_4SHW_DEFAULT WATER INLET NODE,CONNECTOR:SPLITTER,SHWSYS1 DEMAND SPLITTER,Outlet,1
 Non-Parent Node Connection,ZN_1_FLR_1_SEC_5SHW_DEFAULT WATER INLET NODE,CONNECTOR:SPLITTER,SHWSYS1 DEMAND SPLITTER,Outlet,1
 Non-Parent Node Connection,ZN_1_FLR_1_SEC_1 PTAC HEAT COILDEMAND INLET NODE,CONNECTOR:SPLITTER,SHWSYS1 DEMAND SPLITTER,Outlet,1
 Non-Parent Node Connection,ZN_1_FLR_1_SEC_2 PTAC HEAT COILDEMAND INLET NODE,CONNECTOR:SPLITTER,SHWSYS1 DEMAND SPLITTER,Outlet,1
 Non-Parent Node Connection,ZN_1_FLR_1_SEC_3 PTAC HEAT COILDEMAND INLET NODE,CONNECTOR:SPLITTER,SHWSYS1 DEMAND SPLITTER,Outlet,1
 Non-Parent Node Connection,ZN_1_FLR_1_SEC_4 PTAC HEAT COILDEMAND INLET NODE,CONNECTOR:SPLITTER,SHWSYS1 DEMAND SPLITTER,Outlet,1
 Non-Parent Node Connection,ZN_1_FLR_1_SEC_5 PTAC HEAT COILDEMAND INLET NODE,CONNECTOR:SPLITTER,SHWSYS1 DEMAND SPLITTER,Outlet,1
 Non-Parent Node Connection,SHWSYS1 DEMAND BYPASS PIPE INLET NODE,CONNECTOR:SPLITTER,SHWSYS1 DEMAND SPLITTER,Outlet,1
 Non-Parent Node Connection,SHWSYS1 DEMAND MIXER-SHWSYS1 DEMAND OUTLET PIPE,CONNECTOR:MIXER,SHWSYS1 DEMAND MIXER,Outlet,1
 Non-Parent Node Connection,ZN_1_FLR_1_SEC_1SHW_DEFAULT WATER OUTLET NODE,CONNECTOR:MIXER,SHWSYS1 DEMAND MIXER,Inlet,1
 Non-Parent Node Connection,ZN_1_FLR_1_SEC_2SHW_DEFAULT WATER OUTLET NODE,CONNECTOR:MIXER,SHWSYS1 DEMAND MIXER,Inlet,1
 Non-Parent Node Connection,ZN_1_FLR_1_SEC_3SHW_DEFAULT WATER OUTLET NODE,CONNECTOR:MIXER,SHWSYS1 DEMAND MIXER,Inlet,1
 Non-Parent Node Connection,ZN_1_FLR_1_SEC_4SHW_DEFAULT WATER OUTLET NODE,CONNECTOR:MIXER,SHWSYS1 DEMAND MIXER,Inlet,1
 Non-Parent Node Connection,ZN_1_FLR_1_SEC_5SHW_DEFAULT WATER OUTLET NODE,CONNECTOR:MIXER,SHWSYS1 DEMAND MIXER,Inlet,1
 Non-Parent Node Connection,ZN_1_FLR_1_SEC_1 PTAC HEAT COILDEMAND OUTLET NODE,CONNECTOR:MIXER,SHWSYS1 DEMAND MIXER,Inlet,1
 Non-Parent Node Connection,ZN_1_FLR_1_SEC_2 PTAC HEAT COILDEMAND OUTLET NODE,CONNECTOR:MIXER,SHWSYS1 DEMAND MIXER,Inlet,1
 Non-Parent Node Connection,ZN_1_FLR_1_SEC_3 PTAC HEAT COILDEMAND OUTLET NODE,CONNECTOR:MIXER,SHWSYS1 DEMAND MIXER,Inlet,1
 Non-Parent Node Connection,ZN_1_FLR_1_SEC_4 PTAC HEAT COILDEMAND OUTLET NODE,CONNECTOR:MIXER,SHWSYS1 DEMAND MIXER,Inlet,1
 Non-Parent Node Connection,ZN_1_FLR_1_SEC_5 PTAC HEAT COILDEMAND OUTLET NODE,CONNECTOR:MIXER,SHWSYS1 DEMAND MIXER,Inlet,1
 Non-Parent Node Connection,SHWSYS1 DEMAND BYPASS PIPE OUTLET NODE,CONNECTOR:MIXER,SHWSYS1 DEMAND MIXER,Inlet,1
 Non-Parent Node Connection,SHWSYS1 WATER INLET NODEVIACONNECTOR,CONNECTOR:SPLITTER,SHWSYS1 SUPPLY SPLITTER,Inlet,1
 Non-Parent Node Connection,SHWSYS1 WATER INLET NODE,CONNECTOR:SPLITTER,SHWSYS1 SUPPLY SPLITTER,Outlet,1
 Non-Parent Node Connection,SHWSYS1 SUPPLY EQUIP BYPASS INLET NODE,CONNECTOR:SPLITTER,SHWSYS1 SUPPLY SPLITTER,Outlet,1
 Non-Parent Node Connection,SHWSYS1 SUPPLY MIXER-SHWSYS1 SUPPLY OUTLET PIPE,CONNECTOR:MIXER,SHWSYS1 SUPPLY MIXER,Outlet,1
 Non-Parent Node Connection,SHWSYS1 WATER OUTLET NODE,CONNECTOR:MIXER,SHWSYS1 SUPPLY MIXER,Inlet,1
 Non-Parent Node Connection,SHWSYS1 SUPPLY EQUIP BYPASS OUTLET NODE,CONNECTOR:MIXER,SHWSYS1 SUPPLY MIXER,Inlet,1
 Non-Parent Node Connection,MICROCHP SENERTECH DEMAND INLET PIPE-MICROCHP SENERTECH DEMAND MIXER,CONNECTOR:SPLITTER,MICROCHP SENERTECH DEMAND SPLITTER,Inlet,1
 Non-Parent Node Connection,MICROCHP SENERTECH WATER INLET NODE,CONNECTOR:SPLITTER,MICROCHP SENERTECH DEMAND SPLITTER,Outlet,1
 Non-Parent Node Connection,MICROCHP SENERTECH DEMAND BYPASS PIPE INLET NODE,CONNECTOR:SPLITTER,MICROCHP SENERTECH DEMAND SPLITTER,Outlet,1
 Non-Parent Node Connection,MICROCHP SENERTECH DEMAND MIXER-MICROCHP SENERTECH DEMAND OUTLET PIPE,CONNECTOR:MIXER,MICROCHP SENERTECH DEMAND MIXER,Outlet,1
 Non-Parent Node Connection,MICROCHP SENERTECH WATER OUTLET NODE,CONNECTOR:MIXER,MICROCHP SENERTECH DEMAND MIXER,Inlet,1
 Non-Parent Node Connection,MICROCHP SENERTECH DEMAND BYPASS PIPE OUTLET NODE,CONNECTOR:MIXER,MICROCHP SENERTECH DEMAND MIXER,Inlet,1
 Non-Parent Node Connection,MICROCHP SENERTECH PUMP-MICROCOGEN1NODEVIACONNECTOR,CONNECTOR:SPLITTER,MICROCHP SENERTECH SUPPLY SPLITTER,Inlet,1
 Non-Parent Node Connection,MICROCHP SENERTECH PUMP-MICROCOGEN1NODE,CONNECTOR:SPLITTER,MICROCHP SENERTECH SUPPLY SPLITTER,Outlet,1
 Non-Parent Node Connection,SMALL SOFC HEAT REC INLET NODE,CONNECTOR:SPLITTER,MICROCHP SENERTECH SUPPLY SPLITTER,Outlet,1
 Non-Parent Node Connection,MICROCHP SENERTECH SUPPLY EQUIP BYPASS INLET NODE,CONNECTOR:SPLITTER,MICROCHP SENERTECH SUPPLY SPLITTER,Outlet,1
 Non-Parent Node Connection,MICROCHP SENERTECH SUPPLY MIXER-MICROCHP SENERTECH SUPPLY OUTLET PIPE,CONNECTOR:MIXER,MICROCHP SENERTECH SUPPLY MIXER,Outlet,1
 Non-Parent Node Connection,MICROCHP SENERTECH SUPPLY EQUIPMENT OUTLET NODE,CONNECTOR:MIXER,MICROCHP SENERTECH SUPPLY MIXER,Inlet,1
 Non-Parent Node Connection,SMALL SOFC HEAT REC OUTLET NODE,CONNECTOR:MIXER,MICROCHP SENERTECH SUPPLY MIXER,Inlet,1
 Non-Parent Node Connection,MICROCHP SENERTECH SUPPLY EQUIP BYPASS OUTLET NODE,CONNECTOR:MIXER,MICROCHP SENERTECH SUPPLY MIXER,Inlet,1
 Non-Parent Node Connection,ZN_1_FLR_1_SEC_1SHW_DEFAULT WATER INLET NODE,WATERUSE:CONNECTIONS,ZN_1_FLR_1_SEC_1SHW_DEFAULT,Inlet,1
 Non-Parent Node Connection,ZN_1_FLR_1_SEC_1SHW_DEFAULT WATER OUTLET NODE,WATERUSE:CONNECTIONS,ZN_1_FLR_1_SEC_1SHW_DEFAULT,Outlet,1
 Non-Parent Node Connection,ZN_1_FLR_1_SEC_2SHW_DEFAULT WATER INLET NODE,WATERUSE:CONNECTIONS,ZN_1_FLR_1_SEC_2SHW_DEFAULT,Inlet,1
 Non-Parent Node Connection,ZN_1_FLR_1_SEC_2SHW_DEFAULT WATER OUTLET NODE,WATERUSE:CONNECTIONS,ZN_1_FLR_1_SEC_2SHW_DEFAULT,Outlet,1
 Non-Parent Node Connection,ZN_1_FLR_1_SEC_3SHW_DEFAULT WATER INLET NODE,WATERUSE:CONNECTIONS,ZN_1_FLR_1_SEC_3SHW_DEFAULT,Inlet,1
 Non-Parent Node Connection,ZN_1_FLR_1_SEC_3SHW_DEFAULT WATER OUTLET NODE,WATERUSE:CONNECTIONS,ZN_1_FLR_1_SEC_3SHW_DEFAULT,Outlet,1
 Non-Parent Node Connection,ZN_1_FLR_1_SEC_4SHW_DEFAULT WATER INLET NODE,WATERUSE:CONNECTIONS,ZN_1_FLR_1_SEC_4SHW_DEFAULT,Inlet,1
 Non-Parent Node Connection,ZN_1_FLR_1_SEC_4SHW_DEFAULT WATER OUTLET NODE,WATERUSE:CONNECTIONS,ZN_1_FLR_1_SEC_4SHW_DEFAULT,Outlet,1
 Non-Parent Node Connection,ZN_1_FLR_1_SEC_5SHW_DEFAULT WATER INLET NODE,WATERUSE:CONNECTIONS,ZN_1_FLR_1_SEC_5SHW_DEFAULT,Inlet,1
 Non-Parent Node Connection,ZN_1_FLR_1_SEC_5SHW_DEFAULT WATER OUTLET NODE,WATERUSE:CONNECTIONS,ZN_1_FLR_1_SEC_5SHW_DEFAULT,Outlet,1
 Non-Parent Node Connection,SOFC AIR HR INLET,GENERATOR:FUELCELL:POWERMODULE,FCT SOFC POWER MODULE,Inlet,1
 Non-Parent Node Connection,SOFC AIR HR OUTLET,GENERATOR:FUELCELL:POWERMODULE,FCT SOFC POWER MODULE,Outlet,1
 Non-Parent Node Connection,MICROCOGEN1 AIR INLET NODE,GENERATOR:FUELSUPPLY,NATURALGAS,Sensor,1
 Non-Parent Node Connection,SOFC AIR INLET NODE,GENERATOR:FUELSUPPLY,FCT SOFC FUEL SUPPLY,Sensor,1
 Non-Parent Node Connection,SOFC AIR INLET NODE,GENERATOR:FUELCELL:AIRSUPPLY,FCT SOFC AIR SUPPLY,Inlet,1
 Non-Parent Node Connection,SOFC AIR INLET NODE,GENERATOR:FUELCELL:WATERSUPPLY,FCT SOFC WATER SUPPLY,Sensor,1
 Non-Parent Node Connection,SMALL SOFC HEAT REC INLET NODE,GENERATOR:FUELCELL:EXHAUSTGASTOWATERHEATEXCHANGER,FCT SOFC EXHAUST HX,Inlet,1
 Non-Parent Node Connection,SMALL SOFC HEAT REC OUTLET NODE,GENERATOR:FUELCELL:EXHAUSTGASTOWATERHEATEXCHANGER,FCT SOFC EXHAUST HX,Outlet,1
 Non-Parent Node Connection,SOFC AIR OUTLET NODE,GENERATOR:FUELCELL:EXHAUSTGASTOWATERHEATEXCHANGER,FCT SOFC EXHAUST HX,Outlet,2
 Non-Parent Node Connection,MICROCHP SENERTECH PUMP-MICROCOGEN1NODE,GENERATOR:MICROCHP,MICROCOGEN1,Inlet,1
 Non-Parent Node Connection,MICROCHP SENERTECH SUPPLY EQUIPMENT OUTLET NODE,GENERATOR:MICROCHP,MICROCOGEN1,Outlet,1
 Non-Parent Node Connection,MICROCOGEN1 AIR INLET NODE,GENERATOR:MICROCHP,MICROCOGEN1,Inlet,2
 Non-Parent Node Connection,ZN_1_FLR_1_SEC_1 PTACDXCOOL INLET,OUTDOORAIR:MIXER,ZN_1_FLR_1_SEC_1 PTAC OA MIXER,Outlet,1
 Non-Parent Node Connection,ZN_1_FLR_1_SEC_1 PTAC OA NODE,OUTDOORAIR:MIXER,ZN_1_FLR_1_SEC_1 PTAC OA MIXER,Inlet,1
 Non-Parent Node Connection,ZN_1_FLR_1_SEC_1 PTAC RELIEF NODE,OUTDOORAIR:MIXER,ZN_1_FLR_1_SEC_1 PTAC OA MIXER,ReliefAir,1
 Non-Parent Node Connection,ZN_1_FLR_1_SEC_1 EXHAUST NODE,OUTDOORAIR:MIXER,ZN_1_FLR_1_SEC_1 PTAC OA MIXER,Inlet,1
 Non-Parent Node Connection,ZN_1_FLR_1_SEC_2 PTACDXCOOL INLET,OUTDOORAIR:MIXER,ZN_1_FLR_1_SEC_2 PTAC OA MIXER,Outlet,1
 Non-Parent Node Connection,ZN_1_FLR_1_SEC_2 PTAC OA NODE,OUTDOORAIR:MIXER,ZN_1_FLR_1_SEC_2 PTAC OA MIXER,Inlet,1
 Non-Parent Node Connection,ZN_1_FLR_1_SEC_2 PTAC RELIEF NODE,OUTDOORAIR:MIXER,ZN_1_FLR_1_SEC_2 PTAC OA MIXER,ReliefAir,1
 Non-Parent Node Connection,ZN_1_FLR_1_SEC_2 EXHAUST NODE,OUTDOORAIR:MIXER,ZN_1_FLR_1_SEC_2 PTAC OA MIXER,Inlet,1
 Non-Parent Node Connection,ZN_1_FLR_1_SEC_3 PTACDXCOOL INLET,OUTDOORAIR:MIXER,ZN_1_FLR_1_SEC_3 PTAC OA MIXER,Outlet,1
 Non-Parent Node Connection,ZN_1_FLR_1_SEC_3 PTAC OA NODE,OUTDOORAIR:MIXER,ZN_1_FLR_1_SEC_3 PTAC OA MIXER,Inlet,1
 Non-Parent Node Connection,ZN_1_FLR_1_SEC_3 PTAC RELIEF NODE,OUTDOORAIR:MIXER,ZN_1_FLR_1_SEC_3 PTAC OA MIXER,ReliefAir,1
 Non-Parent Node Connection,ZN_1_FLR_1_SEC_3 EXHAUST NODE,OUTDOORAIR:MIXER,ZN_1_FLR_1_SEC_3 PTAC OA MIXER,Inlet,1
 Non-Parent Node Connection,ZN_1_FLR_1_SEC_4 PTACDXCOOL INLET,OUTDOORAIR:MIXER,ZN_1_FLR_1_SEC_4 PTAC OA MIXER,Outlet,1
 Non-Parent Node Connection,ZN_1_FLR_1_SEC_4 PTAC OA NODE,OUTDOORAIR:MIXER,ZN_1_FLR_1_SEC_4 PTAC OA MIXER,Inlet,1
 Non-Parent Node Connection,ZN_1_FLR_1_SEC_4 PTAC RELIEF NODE,OUTDOORAIR:MIXER,ZN_1_FLR_1_SEC_4 PTAC OA MIXER,ReliefAir,1
 Non-Parent Node Connection,ZN_1_FLR_1_SEC_4 EXHAUST NODE,OUTDOORAIR:MIXER,ZN_1_FLR_1_SEC_4 PTAC OA MIXER,Inlet,1
 Non-Parent Node Connection,ZN_1_FLR_1_SEC_5 PTACDXCOOL INLET,OUTDOORAIR:MIXER,ZN_1_FLR_1_SEC_5 PTAC OA MIXER,Outlet,1
 Non-Parent Node Connection,ZN_1_FLR_1_SEC_5 PTAC OA NODE,OUTDOORAIR:MIXER,ZN_1_FLR_1_SEC_5 PTAC OA MIXER,Inlet,1
 Non-Parent Node Connection,ZN_1_FLR_1_SEC_5 PTAC RELIEF NODE,OUTDOORAIR:MIXER,ZN_1_FLR_1_SEC_5 PTAC OA MIXER,ReliefAir,1
 Non-Parent Node Connection,ZN_1_FLR_1_SEC_5 EXHAUST NODE,OUTDOORAIR:MIXER,ZN_1_FLR_1_SEC_5 PTAC OA MIXER,Inlet,1
 Non-Parent Node Connection,ZN_1_FLR_1_SEC_1 PTACFAN INLET,FAN:ONOFF,ZN_1_FLR_1_SEC_1 PTACFAN,Inlet,1
 Non-Parent Node Connection,ZN_1_FLR_1_SEC_1 INLET NODE,FAN:ONOFF,ZN_1_FLR_1_SEC_1 PTACFAN,Outlet,1
 Non-Parent Node Connection,ZN_1_FLR_1_SEC_2 PTACFAN INLET,FAN:ONOFF,ZN_1_FLR_1_SEC_2 PTACFAN,Inlet,1
 Non-Parent Node Connection,ZN_1_FLR_1_SEC_2 INLET NODE,FAN:ONOFF,ZN_1_FLR_1_SEC_2 PTACFAN,Outlet,1
 Non-Parent Node Connection,ZN_1_FLR_1_SEC_3 PTACFAN INLET,FAN:ONOFF,ZN_1_FLR_1_SEC_3 PTACFAN,Inlet,1
 Non-Parent Node Connection,ZN_1_FLR_1_SEC_3 INLET NODE,FAN:ONOFF,ZN_1_FLR_1_SEC_3 PTACFAN,Outlet,1
 Non-Parent Node Connection,ZN_1_FLR_1_SEC_4 PTACFAN INLET,FAN:ONOFF,ZN_1_FLR_1_SEC_4 PTACFAN,Inlet,1
 Non-Parent Node Connection,ZN_1_FLR_1_SEC_4 INLET NODE,FAN:ONOFF,ZN_1_FLR_1_SEC_4 PTACFAN,Outlet,1
 Non-Parent Node Connection,ZN_1_FLR_1_SEC_5 PTACFAN INLET,FAN:ONOFF,ZN_1_FLR_1_SEC_5 PTACFAN,Inlet,1
 Non-Parent Node Connection,ZN_1_FLR_1_SEC_5 INLET NODE,FAN:ONOFF,ZN_1_FLR_1_SEC_5 PTACFAN,Outlet,1
 Non-Parent Node Connection,ZN_1_FLR_1_SEC_1 PTAC HEAT COILDEMAND INLET NODE,COIL:HEATING:WATER,ZN_1_FLR_1_SEC_1 PTAC HEAT COIL,Inlet,2
 Non-Parent Node Connection,ZN_1_FLR_1_SEC_1 PTAC HEAT COILDEMAND OUTLET NODE,COIL:HEATING:WATER,ZN_1_FLR_1_SEC_1 PTAC HEAT COIL,Outlet,2
 Non-Parent Node Connection,ZN_1_FLR_1_SEC_1 PTAC POST CC NODE,COIL:HEATING:WATER,ZN_1_FLR_1_SEC_1 PTAC HEAT COIL,Inlet,1
 Non-Parent Node Connection,ZN_1_FLR_1_SEC_1 PTACFAN INLET,COIL:HEATING:WATER,ZN_1_FLR_1_SEC_1 PTAC HEAT COIL,Outlet,1
 Non-Parent Node Connection,ZN_1_FLR_1_SEC_2 PTAC HEAT COILDEMAND INLET NODE,COIL:HEATING:WATER,ZN_1_FLR_1_SEC_2 PTAC HEAT COIL,Inlet,2
 Non-Parent Node Connection,ZN_1_FLR_1_SEC_2 PTAC HEAT COILDEMAND OUTLET NODE,COIL:HEATING:WATER,ZN_1_FLR_1_SEC_2 PTAC HEAT COIL,Outlet,2
 Non-Parent Node Connection,ZN_1_FLR_1_SEC_2 PTAC POST CC NODE,COIL:HEATING:WATER,ZN_1_FLR_1_SEC_2 PTAC HEAT COIL,Inlet,1
 Non-Parent Node Connection,ZN_1_FLR_1_SEC_2 PTACFAN INLET,COIL:HEATING:WATER,ZN_1_FLR_1_SEC_2 PTAC HEAT COIL,Outlet,1
 Non-Parent Node Connection,ZN_1_FLR_1_SEC_3 PTAC HEAT COILDEMAND INLET NODE,COIL:HEATING:WATER,ZN_1_FLR_1_SEC_3 PTAC HEAT COIL,Inlet,2
 Non-Parent Node Connection,ZN_1_FLR_1_SEC_3 PTAC HEAT COILDEMAND OUTLET NODE,COIL:HEATING:WATER,ZN_1_FLR_1_SEC_3 PTAC HEAT COIL,Outlet,2
 Non-Parent Node Connection,ZN_1_FLR_1_SEC_3 PTAC POST CC NODE,COIL:HEATING:WATER,ZN_1_FLR_1_SEC_3 PTAC HEAT COIL,Inlet,1
 Non-Parent Node Connection,ZN_1_FLR_1_SEC_3 PTACFAN INLET,COIL:HEATING:WATER,ZN_1_FLR_1_SEC_3 PTAC HEAT COIL,Outlet,1
 Non-Parent Node Connection,ZN_1_FLR_1_SEC_4 PTAC HEAT COILDEMAND INLET NODE,COIL:HEATING:WATER,ZN_1_FLR_1_SEC_4 PTAC HEAT COIL,Inlet,2
 Non-Parent Node Connection,ZN_1_FLR_1_SEC_4 PTAC HEAT COILDEMAND OUTLET NODE,COIL:HEATING:WATER,ZN_1_FLR_1_SEC_4 PTAC HEAT COIL,Outlet,2
 Non-Parent Node Connection,ZN_1_FLR_1_SEC_4 PTAC POST CC NODE,COIL:HEATING:WATER,ZN_1_FLR_1_SEC_4 PTAC HEAT COIL,Inlet,1
 Non-Parent Node Connection,ZN_1_FLR_1_SEC_4 PTACFAN INLET,COIL:HEATING:WATER,ZN_1_FLR_1_SEC_4 PTAC HEAT COIL,Outlet,1
 Non-Parent Node Connection,ZN_1_FLR_1_SEC_5 PTAC HEAT COILDEMAND INLET NODE,COIL:HEATING:WATER,ZN_1_FLR_1_SEC_5 PTAC HEAT COIL,Inlet,2
 Non-Parent Node Connection,ZN_1_FLR_1_SEC_5 PTAC HEAT COILDEMAND OUTLET NODE,COIL:HEATING:WATER,ZN_1_FLR_1_SEC_5 PTAC HEAT COIL,Outlet,2
 Non-Parent Node Connection,ZN_1_FLR_1_SEC_5 PTAC POST CC NODE,COIL:HEATING:WATER,ZN_1_FLR_1_SEC_5 PTAC HEAT COIL,Inlet,1
 Non-Parent Node Connection,ZN_1_FLR_1_SEC_5 PTACFAN INLET,COIL:HEATING:WATER,ZN_1_FLR_1_SEC_5 PTAC HEAT COIL,Outlet,1
 Non-Parent Node Connection,ZN_1_FLR_1_SEC_1 PTACDXCOOL INLET,COIL:COOLING:DX:SINGLESPEED,ZN_1_FLR_1_SEC_1 PTAC DXCOIL,Inlet,1
 Non-Parent Node Connection,ZN_1_FLR_1_SEC_1 PTAC POST CC NODE,COIL:COOLING:DX:SINGLESPEED,ZN_1_FLR_1_SEC_1 PTAC DXCOIL,Outlet,1
 Non-Parent Node Connection,ZN_1_FLR_1_SEC_2 PTACDXCOOL INLET,COIL:COOLING:DX:SINGLESPEED,ZN_1_FLR_1_SEC_2 PTAC DXCOIL,Inlet,1
 Non-Parent Node Connection,ZN_1_FLR_1_SEC_2 PTAC POST CC NODE,COIL:COOLING:DX:SINGLESPEED,ZN_1_FLR_1_SEC_2 PTAC DXCOIL,Outlet,1
 Non-Parent Node Connection,ZN_1_FLR_1_SEC_3 PTACDXCOOL INLET,COIL:COOLING:DX:SINGLESPEED,ZN_1_FLR_1_SEC_3 PTAC DXCOIL,Inlet,1
 Non-Parent Node Connection,ZN_1_FLR_1_SEC_3 PTAC POST CC NODE,COIL:COOLING:DX:SINGLESPEED,ZN_1_FLR_1_SEC_3 PTAC DXCOIL,Outlet,1
 Non-Parent Node Connection,ZN_1_FLR_1_SEC_4 PTACDXCOOL INLET,COIL:COOLING:DX:SINGLESPEED,ZN_1_FLR_1_SEC_4 PTAC DXCOIL,Inlet,1
 Non-Parent Node Connection,ZN_1_FLR_1_SEC_4 PTAC POST CC NODE,COIL:COOLING:DX:SINGLESPEED,ZN_1_FLR_1_SEC_4 PTAC DXCOIL,Outlet,1
 Non-Parent Node Connection,ZN_1_FLR_1_SEC_5 PTACDXCOOL INLET,COIL:COOLING:DX:SINGLESPEED,ZN_1_FLR_1_SEC_5 PTAC DXCOIL,Inlet,1
 Non-Parent Node Connection,ZN_1_FLR_1_SEC_5 PTAC POST CC NODE,COIL:COOLING:DX:SINGLESPEED,ZN_1_FLR_1_SEC_5 PTAC DXCOIL,Outlet,1
 Non-Parent Node Connection,SHWSYS1 SUPPLY INLET NODE,PUMP:VARIABLESPEED,SHWSYS1 PUMP,Inlet,1
 Non-Parent Node Connection,SHWSYS1 WATER INLET NODEVIACONNECTOR,PUMP:VARIABLESPEED,SHWSYS1 PUMP,Outlet,1
 Non-Parent Node Connection,MICROCHP SENERTECH SUPPLY INLET NODE,PUMP:VARIABLESPEED,MICROCHP SENERTECH PUMP,Inlet,1
 Non-Parent Node Connection,MICROCHP SENERTECH PUMP-MICROCOGEN1NODEVIACONNECTOR,PUMP:VARIABLESPEED,MICROCHP SENERTECH PUMP,Outlet,1
