Program Version,EnergyPlus, Version 9.2.0-921312fa1d, YMD=2020.05.06 10:33,
   ************* Beginning Zone Sizing Calculations
   ** Warning ** Weather file location will be used rather than entered (IDF) Location object.
   **   ~~~   ** ..Location object=NEWARK_NJ_USA TMY2-14734
   **   ~~~   ** ..Weather File Location=Chicago Ohare Intl Ap IL USA TMY3 WMO#=725300
   **   ~~~   ** ..due to location differences, Latitude difference=[1.28] degrees, Longitude difference=[13.75] degrees.
   **   ~~~   ** ..Time Zone difference=[1.0] hour(s), Elevation difference=[2133.33] percent, [192.00] meters.
   ** Warning ** Calculated design heating load for zone=ZN_1_FLR_1_SEC_5 is zero.
   **   ~~~   ** Check Sizing:Zone and ZoneControl:Thermostat inputs.
   ************* Beginning Plant Sizing Calculations
   ** Warning ** Check input. Calculated Pump Efficiency=13.14% which is less than 50%, for pump=MICROCHP SENERTECH PUMP
   **   ~~~   ** Calculated Pump_Efficiency % =Total_Efficiency % [11.4] / Motor_Efficiency % [87.0]
   **   ~~~   ** Total_Efficiency % =(Rated_Volume_Flow_Rate [8.0E-004] * Rated_Pump_Head [20000.0] / Rated_Power_Use [140.0]) * 100.
   ************* Testing Individual Branch Integrity
   ************* All Branches passed integrity testing
   ************* Testing Individual Supply Air Path Integrity
   ************* All Supply Air Paths passed integrity testing
   ************* Testing Individual Return Air Path Integrity
   ************* All Return Air Paths passed integrity testing
   ************* No node connection errors were found.
   ************* Beginning Simulation
   ** Warning ** Output:Table:Monthly requested with SimulationControl Run Simulation for Weather File Run Periods set to No so Output:Table:Monthly will not be generated
   ** Warning ** GetDensityGlycol: Temperature is out of range (too high) for fluid [WATER] density **
   **   ~~~   ** ..Called From:NodeReportingCalc:SMALL SOFC HEAT REC OUTLET NODE,Temperature=[100.28], supplied data range=[0.00,100.00]
   **   ~~~   **  Environment=NEWARK ANN HTG 99.6% CONDNS DB, at Simulation time=01/21 01:11 - 01:12
   ** Warning ** Plant Loop: MICROCHP SENERTECH Demand Side is storing excess heat the majority of the time.
   ** Warning ** Plant Loop: MICROCHP SENERTECH Supply Side is storing excess heat the majority of the time.
   ************* Simulation Error Summary *************
   ************* There are 3 unused objects in input.
   ************* Use Output:Diagnostics,DisplayUnusedObjects; to see them.
   *************
   ************* ===== Recurring Error Summary =====
   ************* The following recurring error messages occurred.
   *************
   *************  ** Warning ** Plant loop exceeding upper temperature limit, PlantLoop="MICROCHP SENERTECH"
   *************  **   ~~~   **   This error occurred 207 total times;
   *************  **   ~~~   **   during Warmup 207 times;
   *************  **   ~~~   **   during Sizing 0 times.
   *************  **   ~~~   **   Max=125.697892
   *************
   *************  ** Warning ** GetDensityGlycol: Temperature out of range (too high) for fluid [WATER] density **
   *************  **   ~~~   **   This error occurred 32 total times;
   *************  **   ~~~   **   during Warmup 0 times;
   *************  **   ~~~   **   during Sizing 0 times.
   *************  **   ~~~   **   Max=101.153778 {C}  Min=100.045056 {C}
   *************
   ************* EnergyPlus Warmup Error Summary. During Warmup: 0 Warning; 0 Severe Errors.
   ************* EnergyPlus Sizing Error Summary. During Sizing: 2 Warning; 0 Severe Errors.
   ************* EnergyPlus Completed Successfully-- 245 Warning; 0 Severe Errors; Elapsed Time=00hr 00min 14.07sec
