! Program Version,EnergyPlus, Version 9.2.0-921312fa1d, YMD=2020.05.06 10:33,
! Output:Meter Objects (applicable to this run)
Output:Meter,Electricity:Facility,hourly; !- [J]
Output:Meter:Cumulative,Electricity:Facility,hourly; !- [J]
Output:Meter,Electricity:Building,hourly; !- [J]
Output:Meter:Cumulative,Electricity:Building,hourly; !- [J]
Output:Meter,Electricity:Zone:ZN_1_FLR_1_SEC_1,hourly; !- [J]
Output:Meter:Cumulative,Electricity:Zone:ZN_1_FLR_1_SEC_1,hourly; !- [J]
Output:Meter,InteriorLights:Electricity,hourly; !- [J]
Output:Meter:Cumulative,InteriorLights:Electricity,hourly; !- [J]
Output:Meter,InteriorLights:Electricity:Zone:ZN_1_FLR_1_SEC_1,hourly; !- [J]
Output:Meter:Cumulative,InteriorLights:Electricity:Zone:ZN_1_FLR_1_SEC_1,hourly; !- [J]
Output:Meter,General Lights:InteriorLights:Electricity,hourly; !- [J]
Output:Meter:Cumulative,General Lights:InteriorLights:Electricity,hourly; !- [J]
Output:Meter,Electricity:Zone:ZN_1_FLR_1_SEC_2,hourly; !- [J]
Output:Meter:Cumulative,Electricity:Zone:ZN_1_FLR_1_SEC_2,hourly; !- [J]
Output:Meter,InteriorLights:Electricity:Zone:ZN_1_FLR_1_SEC_2,hourly; !- [J]
Output:Meter:Cumulative,InteriorLights:Electricity:Zone:ZN_1_FLR_1_SEC_2,hourly; !- [J]
Output:Meter,Electricity:Zone:ZN_1_FLR_1_SEC_3,hourly; !- [J]
Output:Meter:Cumulative,Electricity:Zone:ZN_1_FLR_1_SEC_3,hourly; !- [J]
Output:Meter,InteriorLights:Electricity:Zone:ZN_1_FLR_1_SEC_3,hourly; !- [J]
Output:Meter:Cumulative,InteriorLights:Electricity:Zone:ZN_1_FLR_1_SEC_3,hourly; !- [J]
Output:Meter,Electricity:Zone:ZN_1_FLR_1_SEC_4,hourly; !- [J]
Output:Meter:Cumulative,Electricity:Zone:ZN_1_FLR_1_SEC_4,hourly; !- [J]
Output:Meter,InteriorLights:Electricity:Zone:ZN_1_FLR_1_SEC_4,hourly; !- [J]
Output:Meter:Cumulative,InteriorLights:Electricity:Zone:ZN_1_FLR_1_SEC_4,hourly; !- [J]
Output:Meter,Electricity:Zone:ZN_1_FLR_1_SEC_5,hourly; !- [J]
Output:Meter:Cumulative,Electricity:Zone:ZN_1_FLR_1_SEC_5,hourly; !- [J]
Output:Meter,InteriorLights:Electricity:Zone:ZN_1_FLR_1_SEC_5,hourly; !- [J]
Output:Meter:Cumulative,InteriorLights:Electricity:Zone:ZN_1_FLR_1_SEC_5,hourly; !- [J]
Output:Meter,InteriorEquipment:Electricity,hourly; !- [J]
Output:Meter:Cumulative,InteriorEquipment:Electricity,hourly; !- [J]
Output:Meter,InteriorEquipment:Electricity:Zone:ZN_1_FLR_1_SEC_1,hourly; !- [J]
Output:Meter:Cumulative,InteriorEquipment:Electricity:Zone:ZN_1_FLR_1_SEC_1,hourly; !- [J]
Output:Meter,MiscPlug:InteriorEquipment:Electricity,hourly; !- [J]
Output:Meter:Cumulative,MiscPlug:InteriorEquipment:Electricity,hourly; !- [J]
Output:Meter,InteriorEquipment:Electricity:Zone:ZN_1_FLR_1_SEC_2,hourly; !- [J]
Output:Meter:Cumulative,InteriorEquipment:Electricity:Zone:ZN_1_FLR_1_SEC_2,hourly; !- [J]
Output:Meter,InteriorEquipment:Electricity:Zone:ZN_1_FLR_1_SEC_3,hourly; !- [J]
Output:Meter:Cumulative,InteriorEquipment:Electricity:Zone:ZN_1_FLR_1_SEC_3,hourly; !- [J]
Output:Meter,InteriorEquipment:Electricity:Zone:ZN_1_FLR_1_SEC_4,hourly; !- [J]
Output:Meter:Cumulative,InteriorEquipment:Electricity:Zone:ZN_1_FLR_1_SEC_4,hourly; !- [J]
Output:Meter,InteriorEquipment:Electricity:Zone:ZN_1_FLR_1_SEC_5,hourly; !- [J]
Output:Meter:Cumulative,InteriorEquipment:Electricity:Zone:ZN_1_FLR_1_SEC_5,hourly; !- [J]
Output:Meter,Gas:Facility,hourly; !- [J]
Output:Meter:Cumulative,Gas:Facility,hourly; !- [J]
Output:Meter,Gas:Building,hourly; !- [J]
Output:Meter:Cumulative,Gas:Building,hourly; !- [J]
Output:Meter,Gas:Zone:ZN_1_FLR_1_SEC_1,hourly; !- [J]
Output:Meter:Cumulative,Gas:Zone:ZN_1_FLR_1_SEC_1,hourly; !- [J]
Output:Meter,InteriorEquipment:Gas,hourly; !- [J]
Output:Meter:Cumulative,InteriorEquipment:Gas,hourly; !- [J]
Output:Meter,InteriorEquipment:Gas:Zone:ZN_1_FLR_1_SEC_1,hourly; !- [J]
Output:Meter:Cumulative,InteriorEquipment:Gas:Zone:ZN_1_FLR_1_SEC_1,hourly; !- [J]
Output:Meter,MiscGas:InteriorEquipment:Gas,hourly; !- [J]
Output:Meter:Cumulative,MiscGas:InteriorEquipment:Gas,hourly; !- [J]
Output:Meter,Gas:Zone:ZN_1_FLR_1_SEC_2,hourly; !- [J]
Output:Meter:Cumulative,Gas:Zone:ZN_1_FLR_1_SEC_2,hourly; !- [J]
Output:Meter,InteriorEquipment:Gas:Zone:ZN_1_FLR_1_SEC_2,hourly; !- [J]
Output:Meter:Cumulative,InteriorEquipment:Gas:Zone:ZN_1_FLR_1_SEC_2,hourly; !- [J]
Output:Meter,Gas:Zone:ZN_1_FLR_1_SEC_3,hourly; !- [J]
Output:Meter:Cumulative,Gas:Zone:ZN_1_FLR_1_SEC_3,hourly; !- [J]
Output:Meter,InteriorEquipment:Gas:Zone:ZN_1_FLR_1_SEC_3,hourly; !- [J]
Output:Meter:Cumulative,InteriorEquipment:Gas:Zone:ZN_1_FLR_1_SEC_3,hourly; !- [J]
Output:Meter,Gas:Zone:ZN_1_FLR_1_SEC_4,hourly; !- [J]
Output:Meter:Cumulative,Gas:Zone:ZN_1_FLR_1_SEC_4,hourly; !- [J]
Output:Meter,InteriorEquipment:Gas:Zone:ZN_1_FLR_1_SEC_4,hourly; !- [J]
Output:Meter:Cumulative,InteriorEquipment:Gas:Zone:ZN_1_FLR_1_SEC_4,hourly; !- [J]
Output:Meter,Gas:Zone:ZN_1_FLR_1_SEC_5,hourly; !- [J]
Output:Meter:Cumulative,Gas:Zone:ZN_1_FLR_1_SEC_5,hourly; !- [J]
Output:Meter,InteriorEquipment:Gas:Zone:ZN_1_FLR_1_SEC_5,hourly; !- [J]
Output:Meter:Cumulative,InteriorEquipment:Gas:Zone:ZN_1_FLR_1_SEC_5,hourly; !- [J]
Output:Meter,PlantLoopHeatingDemand:Facility,hourly; !- [J]
Output:Meter:Cumulative,PlantLoopHeatingDemand:Facility,hourly; !- [J]
Output:Meter,PlantLoopHeatingDemand:Plant,hourly; !- [J]
Output:Meter:Cumulative,PlantLoopHeatingDemand:Plant,hourly; !- [J]
Output:Meter,WaterSystems:PlantLoopHeatingDemand,hourly; !- [J]
Output:Meter:Cumulative,WaterSystems:PlantLoopHeatingDemand,hourly; !- [J]
Output:Meter,tank backup:WaterSystems:PlantLoopHeatingDemand,hourly; !- [J]
Output:Meter:Cumulative,tank backup:WaterSystems:PlantLoopHeatingDemand,hourly; !- [J]
Output:Meter,Gas:Plant,hourly; !- [J]
Output:Meter:Cumulative,Gas:Plant,hourly; !- [J]
Output:Meter,WaterSystems:Gas,hourly; !- [J]
Output:Meter:Cumulative,WaterSystems:Gas,hourly; !- [J]
Output:Meter,tank backup:WaterSystems:Gas,hourly; !- [J]
Output:Meter:Cumulative,tank backup:WaterSystems:Gas,hourly; !- [J]
Output:Meter,Water:Facility,hourly; !- [m3]
Output:Meter:Cumulative,Water:Facility,hourly; !- [m3]
Output:Meter,Water:Plant,hourly; !- [m3]
Output:Meter:Cumulative,Water:Plant,hourly; !- [m3]
Output:Meter,WaterSystems:Water,hourly; !- [m3]
Output:Meter:Cumulative,WaterSystems:Water,hourly; !- [m3]
Output:Meter,tank backup:WaterSystems:Water,hourly; !- [m3]
Output:Meter:Cumulative,tank backup:WaterSystems:Water,hourly; !- [m3]
Output:Meter,MainsWater:Facility,hourly; !- [m3]
Output:Meter:Cumulative,MainsWater:Facility,hourly; !- [m3]
Output:Meter,MainsWater:Plant,hourly; !- [m3]
Output:Meter:Cumulative,MainsWater:Plant,hourly; !- [m3]
Output:Meter,WaterSystems:MainsWater,hourly; !- [m3]
Output:Meter:Cumulative,WaterSystems:MainsWater,hourly; !- [m3]
Output:Meter,tank backup:WaterSystems:MainsWater,hourly; !- [m3]
Output:Meter:Cumulative,tank backup:WaterSystems:MainsWater,hourly; !- [m3]
Output:Meter,EnergyTransfer:Facility,hourly; !- [J]
Output:Meter:Cumulative,EnergyTransfer:Facility,hourly; !- [J]
Output:Meter,EnergyTransfer:Building,hourly; !- [J]
Output:Meter:Cumulative,EnergyTransfer:Building,hourly; !- [J]
Output:Meter,EnergyTransfer:Zone:ZN_1_FLR_1_SEC_1,hourly; !- [J]
Output:Meter:Cumulative,EnergyTransfer:Zone:ZN_1_FLR_1_SEC_1,hourly; !- [J]
Output:Meter,Heating:EnergyTransfer,hourly; !- [J]
Output:Meter:Cumulative,Heating:EnergyTransfer,hourly; !- [J]
Output:Meter,Heating:EnergyTransfer:Zone:ZN_1_FLR_1_SEC_1,hourly; !- [J]
Output:Meter:Cumulative,Heating:EnergyTransfer:Zone:ZN_1_FLR_1_SEC_1,hourly; !- [J]
Output:Meter,Cooling:EnergyTransfer,hourly; !- [J]
Output:Meter:Cumulative,Cooling:EnergyTransfer,hourly; !- [J]
Output:Meter,Cooling:EnergyTransfer:Zone:ZN_1_FLR_1_SEC_1,hourly; !- [J]
Output:Meter:Cumulative,Cooling:EnergyTransfer:Zone:ZN_1_FLR_1_SEC_1,hourly; !- [J]
Output:Meter,EnergyTransfer:Zone:ZN_1_FLR_1_SEC_2,hourly; !- [J]
Output:Meter:Cumulative,EnergyTransfer:Zone:ZN_1_FLR_1_SEC_2,hourly; !- [J]
Output:Meter,Heating:EnergyTransfer:Zone:ZN_1_FLR_1_SEC_2,hourly; !- [J]
Output:Meter:Cumulative,Heating:EnergyTransfer:Zone:ZN_1_FLR_1_SEC_2,hourly; !- [J]
Output:Meter,Cooling:EnergyTransfer:Zone:ZN_1_FLR_1_SEC_2,hourly; !- [J]
Output:Meter:Cumulative,Cooling:EnergyTransfer:Zone:ZN_1_FLR_1_SEC_2,hourly; !- [J]
Output:Meter,EnergyTransfer:Zone:ZN_1_FLR_1_SEC_3,hourly; !- [J]
Output:Meter:Cumulative,EnergyTransfer:Zone:ZN_1_FLR_1_SEC_3,hourly; !- [J]
Output:Meter,Heating:EnergyTransfer:Zone:ZN_1_FLR_1_SEC_3,hourly; !- [J]
Output:Meter:Cumulative,Heating:EnergyTransfer:Zone:ZN_1_FLR_1_SEC_3,hourly; !- [J]
Output:Meter,Cooling:EnergyTransfer:Zone:ZN_1_FLR_1_SEC_3,hourly; !- [J]
Output:Meter:Cumulative,Cooling:EnergyTransfer:Zone:ZN_1_FLR_1_SEC_3,hourly; !- [J]
Output:Meter,EnergyTransfer:Zone:ZN_1_FLR_1_SEC_4,hourly; !- [J]
Output:Meter:Cumulative,EnergyTransfer:Zone:ZN_1_FLR_1_SEC_4,hourly; !- [J]
Output:Meter,Heating:EnergyTransfer:Zone:ZN_1_FLR_1_SEC_4,hourly; !- [J]
Output:Meter:Cumulative,Heating:EnergyTransfer:Zone:ZN_1_FLR_1_SEC_4,hourly; !- [J]
Output:Meter,Cooling:EnergyTransfer:Zone:ZN_1_FLR_1_SEC_4,hourly; !- [J]
Output:Meter:Cumulative,Cooling:EnergyTransfer:Zone:ZN_1_FLR_1_SEC_4,hourly; !- [J]
Output:Meter,EnergyTransfer:Zone:ZN_1_FLR_1_SEC_5,hourly; !- [J]
Output:Meter:Cumulative,EnergyTransfer:Zone:ZN_1_FLR_1_SEC_5,hourly; !- [J]
Output:Meter,Heating:EnergyTransfer:Zone:ZN_1_FLR_1_SEC_5,hourly; !- [J]
Output:Meter:Cumulative,Heating:EnergyTransfer:Zone:ZN_1_FLR_1_SEC_5,hourly; !- [J]
Output:Meter,Cooling:EnergyTransfer:Zone:ZN_1_FLR_1_SEC_5,hourly; !- [J]
Output:Meter:Cumulative,Cooling:EnergyTransfer:Zone:ZN_1_FLR_1_SEC_5,hourly; !- [J]
Output:Meter,SHW_DEFAULT:WaterSystems:Water,hourly; !- [m3]
Output:Meter:Cumulative,SHW_DEFAULT:WaterSystems:Water,hourly; !- [m3]
Output:Meter,SHW_DEFAULT:WaterSystems:MainsWater,hourly; !- [m3]
Output:Meter:Cumulative,SHW_DEFAULT:WaterSystems:MainsWater,hourly; !- [m3]
Output:Meter,EnergyTransfer:Plant,hourly; !- [J]
Output:Meter:Cumulative,EnergyTransfer:Plant,hourly; !- [J]
Output:Meter,WaterSystems:EnergyTransfer,hourly; !- [J]
Output:Meter:Cumulative,WaterSystems:EnergyTransfer,hourly; !- [J]
Output:Meter,SHW_DEFAULT:WaterSystems:EnergyTransfer,hourly; !- [J]
Output:Meter:Cumulative,SHW_DEFAULT:WaterSystems:EnergyTransfer,hourly; !- [J]
Output:Meter,ElectricityProduced:Facility,hourly; !- [J]
Output:Meter:Cumulative,ElectricityProduced:Facility,hourly; !- [J]
Output:Meter,ElectricityProduced:Plant,hourly; !- [J]
Output:Meter:Cumulative,ElectricityProduced:Plant,hourly; !- [J]
Output:Meter,Cogeneration:ElectricityProduced,hourly; !- [J]
Output:Meter:Cumulative,Cogeneration:ElectricityProduced,hourly; !- [J]
Output:Meter,Cogeneration:EnergyTransfer,hourly; !- [J]
Output:Meter:Cumulative,Cogeneration:EnergyTransfer,hourly; !- [J]
Output:Meter,Cogeneration:Gas,hourly; !- [J]
Output:Meter:Cumulative,Cogeneration:Gas,hourly; !- [J]
Output:Meter,ElectricityPurchased:Facility,hourly; !- [J]
Output:Meter:Cumulative,ElectricityPurchased:Facility,hourly; !- [J]
Output:Meter,ElectricityPurchased:Plant,hourly; !- [J]
Output:Meter:Cumulative,ElectricityPurchased:Plant,hourly; !- [J]
Output:Meter,Cogeneration:ElectricityPurchased,hourly; !- [J]
Output:Meter:Cumulative,Cogeneration:ElectricityPurchased,hourly; !- [J]
Output:Meter,ElectricitySurplusSold:Facility,hourly; !- [J]
Output:Meter:Cumulative,ElectricitySurplusSold:Facility,hourly; !- [J]
Output:Meter,ElectricitySurplusSold:Plant,hourly; !- [J]
Output:Meter:Cumulative,ElectricitySurplusSold:Plant,hourly; !- [J]
Output:Meter,Cogeneration:ElectricitySurplusSold,hourly; !- [J]
Output:Meter:Cumulative,Cogeneration:ElectricitySurplusSold,hourly; !- [J]
Output:Meter,ElectricityNet:Facility,hourly; !- [J]
Output:Meter:Cumulative,ElectricityNet:Facility,hourly; !- [J]
Output:Meter,ElectricityNet:Plant,hourly; !- [J]
Output:Meter:Cumulative,ElectricityNet:Plant,hourly; !- [J]
Output:Meter,Cogeneration:ElectricityNet,hourly; !- [J]
Output:Meter:Cumulative,Cogeneration:ElectricityNet,hourly; !- [J]
Output:Meter,Electricity:HVAC,hourly; !- [J]
Output:Meter:Cumulative,Electricity:HVAC,hourly; !- [J]
Output:Meter,Fans:Electricity,hourly; !- [J]
Output:Meter:Cumulative,Fans:Electricity,hourly; !- [J]
Output:Meter,PTAC Fan:Fans:Electricity,hourly; !- [J]
Output:Meter:Cumulative,PTAC Fan:Fans:Electricity,hourly; !- [J]
Output:Meter,EnergyTransfer:HVAC,hourly; !- [J]
Output:Meter:Cumulative,EnergyTransfer:HVAC,hourly; !- [J]
Output:Meter,HeatingCoils:EnergyTransfer,hourly; !- [J]
Output:Meter:Cumulative,HeatingCoils:EnergyTransfer,hourly; !- [J]
Output:Meter,PlantLoopHeatingDemand:HVAC,hourly; !- [J]
Output:Meter:Cumulative,PlantLoopHeatingDemand:HVAC,hourly; !- [J]
Output:Meter,HeatingCoils:PlantLoopHeatingDemand,hourly; !- [J]
Output:Meter:Cumulative,HeatingCoils:PlantLoopHeatingDemand,hourly; !- [J]
Output:Meter,CoolingCoils:EnergyTransfer,hourly; !- [J]
Output:Meter:Cumulative,CoolingCoils:EnergyTransfer,hourly; !- [J]
Output:Meter,Cooling:Electricity,hourly; !- [J]
Output:Meter:Cumulative,Cooling:Electricity,hourly; !- [J]
Output:Meter,ExteriorLights:Electricity,hourly; !- [J]
Output:Meter:Cumulative,ExteriorLights:Electricity,hourly; !- [J]
Output:Meter,Exterior Facade Lighting:ExteriorLights:Electricity,hourly; !- [J]
Output:Meter:Cumulative,Exterior Facade Lighting:ExteriorLights:Electricity,hourly; !- [J]
Output:Meter,ExteriorEquipment:Electricity,hourly; !- [J]
Output:Meter:Cumulative,ExteriorEquipment:Electricity,hourly; !- [J]
Output:Meter,Refrigeration (simple):ExteriorEquipment:Electricity,hourly; !- [J]
Output:Meter:Cumulative,Refrigeration (simple):ExteriorEquipment:Electricity,hourly; !- [J]
Output:Meter,Electricity:Plant,hourly; !- [J]
Output:Meter:Cumulative,Electricity:Plant,hourly; !- [J]
Output:Meter,Pumps:Electricity,hourly; !- [J]
Output:Meter:Cumulative,Pumps:Electricity,hourly; !- [J]
Output:Meter,General:Pumps:Electricity,hourly; !- [J]
Output:Meter:Cumulative,General:Pumps:Electricity,hourly; !- [J]
Output:Meter,Source:Facility,hourly; !- [J]
Output:Meter:Cumulative,Source:Facility,hourly; !- [J]
Output:Meter,ElectricEmissions:Source,hourly; !- [J]
Output:Meter:Cumulative,ElectricEmissions:Source,hourly; !- [J]
Output:Meter,CO2:Facility,hourly; !- [kg]
Output:Meter:Cumulative,CO2:Facility,hourly; !- [kg]
Output:Meter,ElectricEmissions:CO2,hourly; !- [kg]
Output:Meter:Cumulative,ElectricEmissions:CO2,hourly; !- [kg]
Output:Meter,CO:Facility,hourly; !- [kg]
Output:Meter:Cumulative,CO:Facility,hourly; !- [kg]
Output:Meter,ElectricEmissions:CO,hourly; !- [kg]
Output:Meter:Cumulative,ElectricEmissions:CO,hourly; !- [kg]
Output:Meter,CH4:Facility,hourly; !- [kg]
Output:Meter:Cumulative,CH4:Facility,hourly; !- [kg]
Output:Meter,ElectricEmissions:CH4,hourly; !- [kg]
Output:Meter:Cumulative,ElectricEmissions:CH4,hourly; !- [kg]
Output:Meter,NOx:Facility,hourly; !- [kg]
Output:Meter:Cumulative,NOx:Facility,hourly; !- [kg]
Output:Meter,ElectricEmissions:NOx,hourly; !- [kg]
Output:Meter:Cumulative,ElectricEmissions:NOx,hourly; !- [kg]
Output:Meter,N2O:Facility,hourly; !- [kg]
Output:Meter:Cumulative,N2O:Facility,hourly; !- [kg]
Output:Meter,ElectricEmissions:N2O,hourly; !- [kg]
Output:Meter:Cumulative,ElectricEmissions:N2O,hourly; !- [kg]
Output:Meter,SO2:Facility,hourly; !- [kg]
Output:Meter:Cumulative,SO2:Facility,hourly; !- [kg]
Output:Meter,ElectricEmissions:SO2,hourly; !- [kg]
Output:Meter:Cumulative,ElectricEmissions:SO2,hourly; !- [kg]
Output:Meter,PM:Facility,hourly; !- [kg]
Output:Meter:Cumulative,PM:Facility,hourly; !- [kg]
Output:Meter,ElectricEmissions:PM,hourly; !- [kg]
Output:Meter:Cumulative,ElectricEmissions:PM,hourly; !- [kg]
Output:Meter,PM10:Facility,hourly; !- [kg]
Output:Meter:Cumulative,PM10:Facility,hourly; !- [kg]
Output:Meter,ElectricEmissions:PM10,hourly; !- [kg]
Output:Meter:Cumulative,ElectricEmissions:PM10,hourly; !- [kg]
Output:Meter,PM2.5:Facility,hourly; !- [kg]
Output:Meter:Cumulative,PM2.5:Facility,hourly; !- [kg]
Output:Meter,ElectricEmissions:PM2.5,hourly; !- [kg]
Output:Meter:Cumulative,ElectricEmissions:PM2.5,hourly; !- [kg]
Output:Meter,NH3:Facility,hourly; !- [kg]
Output:Meter:Cumulative,NH3:Facility,hourly; !- [kg]
Output:Meter,ElectricEmissions:NH3,hourly; !- [kg]
Output:Meter:Cumulative,ElectricEmissions:NH3,hourly; !- [kg]
Output:Meter,NMVOC:Facility,hourly; !- [kg]
Output:Meter:Cumulative,NMVOC:Facility,hourly; !- [kg]
Output:Meter,ElectricEmissions:NMVOC,hourly; !- [kg]
Output:Meter:Cumulative,ElectricEmissions:NMVOC,hourly; !- [kg]
Output:Meter,Hg:Facility,hourly; !- [kg]
Output:Meter:Cumulative,Hg:Facility,hourly; !- [kg]
Output:Meter,ElectricEmissions:Hg,hourly; !- [kg]
Output:Meter:Cumulative,ElectricEmissions:Hg,hourly; !- [kg]
Output:Meter,Pb:Facility,hourly; !- [kg]
Output:Meter:Cumulative,Pb:Facility,hourly; !- [kg]
Output:Meter,ElectricEmissions:Pb,hourly; !- [kg]
Output:Meter:Cumulative,ElectricEmissions:Pb,hourly; !- [kg]
Output:Meter,WaterEnvironmentalFactors:Facility,hourly; !- [L]
Output:Meter:Cumulative,WaterEnvironmentalFactors:Facility,hourly; !- [L]
Output:Meter,ElectricEmissions:WaterEnvironmentalFactors,hourly; !- [L]
Output:Meter:Cumulative,ElectricEmissions:WaterEnvironmentalFactors,hourly; !- [L]
Output:Meter,Nuclear High:Facility,hourly; !- [kg]
Output:Meter:Cumulative,Nuclear High:Facility,hourly; !- [kg]
Output:Meter,ElectricEmissions:Nuclear High,hourly; !- [kg]
Output:Meter:Cumulative,ElectricEmissions:Nuclear High,hourly; !- [kg]
Output:Meter,Nuclear Low:Facility,hourly; !- [m3]
Output:Meter:Cumulative,Nuclear Low:Facility,hourly; !- [m3]
Output:Meter,ElectricEmissions:Nuclear Low,hourly; !- [m3]
Output:Meter:Cumulative,ElectricEmissions:Nuclear Low,hourly; !- [m3]
Output:Meter,PurchasedElectricEmissions:Source,hourly; !- [J]
Output:Meter:Cumulative,PurchasedElectricEmissions:Source,hourly; !- [J]
Output:Meter,SoldElectricEmissions:Source,hourly; !- [J]
Output:Meter:Cumulative,SoldElectricEmissions:Source,hourly; !- [J]
Output:Meter,NaturalGasEmissions:Source,hourly; !- [J]
Output:Meter:Cumulative,NaturalGasEmissions:Source,hourly; !- [J]
Output:Meter,NaturalGasEmissions:CO2,hourly; !- [kg]
Output:Meter:Cumulative,NaturalGasEmissions:CO2,hourly; !- [kg]
Output:Meter,NaturalGasEmissions:CO,hourly; !- [kg]
Output:Meter:Cumulative,NaturalGasEmissions:CO,hourly; !- [kg]
Output:Meter,NaturalGasEmissions:CH4,hourly; !- [kg]
Output:Meter:Cumulative,NaturalGasEmissions:CH4,hourly; !- [kg]
Output:Meter,NaturalGasEmissions:NOx,hourly; !- [kg]
Output:Meter:Cumulative,NaturalGasEmissions:NOx,hourly; !- [kg]
Output:Meter,NaturalGasEmissions:N2O,hourly; !- [kg]
Output:Meter:Cumulative,NaturalGasEmissions:N2O,hourly; !- [kg]
Output:Meter,NaturalGasEmissions:SO2,hourly; !- [kg]
Output:Meter:Cumulative,NaturalGasEmissions:SO2,hourly; !- [kg]
Output:Meter,NaturalGasEmissions:PM,hourly; !- [kg]
Output:Meter:Cumulative,NaturalGasEmissions:PM,hourly; !- [kg]
Output:Meter,NaturalGasEmissions:PM10,hourly; !- [kg]
Output:Meter:Cumulative,NaturalGasEmissions:PM10,hourly; !- [kg]
Output:Meter,NaturalGasEmissions:PM2.5,hourly; !- [kg]
Output:Meter:Cumulative,NaturalGasEmissions:PM2.5,hourly; !- [kg]
Output:Meter,NaturalGasEmissions:NH3,hourly; !- [kg]
Output:Meter:Cumulative,NaturalGasEmissions:NH3,hourly; !- [kg]
Output:Meter,NaturalGasEmissions:NMVOC,hourly; !- [kg]
Output:Meter:Cumulative,NaturalGasEmissions:NMVOC,hourly; !- [kg]
Output:Meter,NaturalGasEmissions:Hg,hourly; !- [kg]
Output:Meter:Cumulative,NaturalGasEmissions:Hg,hourly; !- [kg]
Output:Meter,NaturalGasEmissions:Pb,hourly; !- [kg]
Output:Meter:Cumulative,NaturalGasEmissions:Pb,hourly; !- [kg]
Output:Meter,NaturalGasEmissions:WaterEnvironmentalFactors,hourly; !- [L]
Output:Meter:Cumulative,NaturalGasEmissions:WaterEnvironmentalFactors,hourly; !- [L]
Output:Meter,NaturalGasEmissions:Nuclear High,hourly; !- [kg]
Output:Meter:Cumulative,NaturalGasEmissions:Nuclear High,hourly; !- [kg]
Output:Meter,NaturalGasEmissions:Nuclear Low,hourly; !- [m3]
Output:Meter:Cumulative,NaturalGasEmissions:Nuclear Low,hourly; !- [m3]
Output:Meter,FuelOil#1Emissions:Source,hourly; !- [J]
Output:Meter:Cumulative,FuelOil#1Emissions:Source,hourly; !- [J]
Output:Meter,FuelOil#1Emissions:CO2,hourly; !- [kg]
Output:Meter:Cumulative,FuelOil#1Emissions:CO2,hourly; !- [kg]
Output:Meter,FuelOil#1Emissions:CO,hourly; !- [kg]
Output:Meter:Cumulative,FuelOil#1Emissions:CO,hourly; !- [kg]
Output:Meter,FuelOil#1Emissions:CH4,hourly; !- [kg]
Output:Meter:Cumulative,FuelOil#1Emissions:CH4,hourly; !- [kg]
Output:Meter,FuelOil#1Emissions:NOx,hourly; !- [kg]
Output:Meter:Cumulative,FuelOil#1Emissions:NOx,hourly; !- [kg]
Output:Meter,FuelOil#1Emissions:N2O,hourly; !- [kg]
Output:Meter:Cumulative,FuelOil#1Emissions:N2O,hourly; !- [kg]
Output:Meter,FuelOil#1Emissions:SO2,hourly; !- [kg]
Output:Meter:Cumulative,FuelOil#1Emissions:SO2,hourly; !- [kg]
Output:Meter,FuelOil#1Emissions:PM,hourly; !- [kg]
Output:Meter:Cumulative,FuelOil#1Emissions:PM,hourly; !- [kg]
Output:Meter,FuelOil#1Emissions:PM10,hourly; !- [kg]
Output:Meter:Cumulative,FuelOil#1Emissions:PM10,hourly; !- [kg]
Output:Meter,FuelOil#1Emissions:PM2.5,hourly; !- [kg]
Output:Meter:Cumulative,FuelOil#1Emissions:PM2.5,hourly; !- [kg]
Output:Meter,FuelOil#1Emissions:NH3,hourly; !- [kg]
Output:Meter:Cumulative,FuelOil#1Emissions:NH3,hourly; !- [kg]
Output:Meter,FuelOil#1Emissions:NMVOC,hourly; !- [kg]
Output:Meter:Cumulative,FuelOil#1Emissions:NMVOC,hourly; !- [kg]
Output:Meter,FuelOil#1Emissions:Hg,hourly; !- [kg]
Output:Meter:Cumulative,FuelOil#1Emissions:Hg,hourly; !- [kg]
Output:Meter,FuelOil#1Emissions:Pb,hourly; !- [kg]
Output:Meter:Cumulative,FuelOil#1Emissions:Pb,hourly; !- [kg]
Output:Meter,FuelOil#1Emissions:WaterEnvironmentalFactors,hourly; !- [L]
Output:Meter:Cumulative,FuelOil#1Emissions:WaterEnvironmentalFactors,hourly; !- [L]
Output:Meter,FuelOil#1Emissions:Nuclear High,hourly; !- [kg]
Output:Meter:Cumulative,FuelOil#1Emissions:Nuclear High,hourly; !- [kg]
Output:Meter,FuelOil#1Emissions:Nuclear Low,hourly; !- [m3]
Output:Meter:Cumulative,FuelOil#1Emissions:Nuclear Low,hourly; !- [m3]
Output:Meter,PropaneEmissions:Source,hourly; !- [J]
Output:Meter:Cumulative,PropaneEmissions:Source,hourly; !- [J]
Output:Meter,PropaneEmissions:CO2,hourly; !- [kg]
Output:Meter:Cumulative,PropaneEmissions:CO2,hourly; !- [kg]
Output:Meter,PropaneEmissions:CO,hourly; !- [kg]
Output:Meter:Cumulative,PropaneEmissions:CO,hourly; !- [kg]
Output:Meter,PropaneEmissions:CH4,hourly; !- [kg]
Output:Meter:Cumulative,PropaneEmissions:CH4,hourly; !- [kg]
Output:Meter,PropaneEmissions:NOx,hourly; !- [kg]
Output:Meter:Cumulative,PropaneEmissions:NOx,hourly; !- [kg]
Output:Meter,PropaneEmissions:N2O,hourly; !- [kg]
Output:Meter:Cumulative,PropaneEmissions:N2O,hourly; !- [kg]
Output:Meter,PropaneEmissions:SO2,hourly; !- [kg]
Output:Meter:Cumulative,PropaneEmissions:SO2,hourly; !- [kg]
Output:Meter,PropaneEmissions:PM,hourly; !- [kg]
Output:Meter:Cumulative,PropaneEmissions:PM,hourly; !- [kg]
Output:Meter,PropaneEmissions:PM10,hourly; !- [kg]
Output:Meter:Cumulative,PropaneEmissions:PM10,hourly; !- [kg]
Output:Meter,PropaneEmissions:PM2.5,hourly; !- [kg]
Output:Meter:Cumulative,PropaneEmissions:PM2.5,hourly; !- [kg]
Output:Meter,PropaneEmissions:NH3,hourly; !- [kg]
Output:Meter:Cumulative,PropaneEmissions:NH3,hourly; !- [kg]
Output:Meter,PropaneEmissions:NMVOC,hourly; !- [kg]
Output:Meter:Cumulative,PropaneEmissions:NMVOC,hourly; !- [kg]
Output:Meter,PropaneEmissions:Hg,hourly; !- [kg]
Output:Meter:Cumulative,PropaneEmissions:Hg,hourly; !- [kg]
Output:Meter,PropaneEmissions:Pb,hourly; !- [kg]
Output:Meter:Cumulative,PropaneEmissions:Pb,hourly; !- [kg]
Output:Meter,PropaneEmissions:WaterEnvironmentalFactors,hourly; !- [L]
Output:Meter:Cumulative,PropaneEmissions:WaterEnvironmentalFactors,hourly; !- [L]
Output:Meter,PropaneEmissions:Nuclear High,hourly; !- [kg]
Output:Meter:Cumulative,PropaneEmissions:Nuclear High,hourly; !- [kg]
Output:Meter,PropaneEmissions:Nuclear Low,hourly; !- [m3]
Output:Meter:Cumulative,PropaneEmissions:Nuclear Low,hourly; !- [m3]
Output:Meter,Carbon Equivalent:Facility,hourly; !- [kg]
Output:Meter:Cumulative,Carbon Equivalent:Facility,hourly; !- [kg]
Output:Meter,CarbonEquivalentEmissions:Carbon Equivalent,hourly; !- [kg]
Output:Meter:Cumulative,CarbonEquivalentEmissions:Carbon Equivalent,hourly; !- [kg]
